AMOSTRA/RIM/Trafos.dss
! ==========================================================
! TRANSFORMADORES DE DISTRIBUICAO — gerados de UNTRMT/EQTRMT
! Secundario 1F/2F: 3 enrolamentos com derivacao central
! Neutro no no 4, aterrado em _ATERRAMENTO.dss
! Kv de BT conforme TEN_LIN_SE da BDGD
! ==========================================================
New Transformer.3160602 phases=1 windings=3 Xhl=1.200 Xht=1.200 Xlt=0.600
~ wdg=1 bus=25430-12726075cf.1.2 conn=wye Kv=34.5000 Kva=10.0 %R=0.500
~ wdg=2 bus=3160602-12726087.1.4 conn=wye Kv=0.1270 Kva=10.0 %R=0.500
~ wdg=3 bus=3160602-12726087.4.2 conn=wye Kv=0.1270 Kva=10.0 %R=0.500
New Transformer.2958042 phases=1 windings=3 Xhl=1.200 Xht=1.200 Xlt=0.600
~ wdg=1 bus=25430-11528325.1 conn=wye Kv=19.9186 Kva=5.0 %R=0.500
~ wdg=2 bus=2958042-11528325v.1.4 conn=wye Kv=0.1100 Kva=5.0 %R=0.500
~ wdg=3 bus=2958042-11528325v.4.2 conn=wye Kv=0.1100 Kva=5.0 %R=0.500
New Transformer.3210042 phases=1 windings=3 Xhl=1.200 Xht=1.200 Xlt=0.600
~ wdg=1 bus=25425-13169618cf.3.1 conn=wye Kv=34.5000 Kva=5.0 %R=0.500
~ wdg=2 bus=3210042-13169824.1.4 conn=wye Kv=0.1270 Kva=5.0 %R=0.500
~ wdg=3 bus=3210042-13169824.4.2 conn=wye Kv=0.1270 Kva=5.0 %R=0.500
New Transformer.3162552 phases=1 windings=3 Xhl=1.200 Xht=1.200 Xlt=0.600
~ wdg=1 bus=25423-12754502.1 conn=wye Kv=7.9674 Kva=5.0 %R=0.500
~ wdg=2 bus=3162552-12754502v.1.4 conn=wye Kv=0.1100 Kva=5.0 %R=0.500
~ wdg=3 bus=3162552-12754502v.4.2 conn=wye Kv=0.1100 Kva=5.0 %R=0.500
New Transformer.3170141 phases=3 windings=2 Xhl=1.200
~ wdg=1 bus=25423-12806558.1.2.3 conn=delta Kv=13.8 Kva=112.5 %R=0.500
~ wdg=2 bus=3170141-12806662.1.2.3.4 conn=wye Kv=0.2200 Kva=112.5 %R=0.500
New Transformer.3170138 phases=3 windings=2 Xhl=1.200
~ wdg=1 bus=25423-12806563.1.2.3 conn=delta Kv=13.8 Kva=112.5 %R=0.500
~ wdg=2 bus=3170138-12806624.1.2.3.4 conn=wye Kv=0.2200 Kva=112.5 %R=0.500
New Transformer.3170139 phases=3 windings=2 Xhl=1.200
~ wdg=1 bus=25423-12806568.1.2.3 conn=delta Kv=13.8 Kva=112.5 %R=0.500
~ wdg=2 bus=3170139-12806640.1.2.3.4 conn=wye Kv=0.2200 Kva=112.5 %R=0.500
New Transformer.3170143 phases=3 windings=2 Xhl=1.200
~ wdg=1 bus=25423-12806571.1.2.3 conn=delta Kv=13.8 Kva=112.5 %R=0.500
~ wdg=2 bus=3170143-12806621.1.2.3.4 conn=wye Kv=0.2200 Kva=112.5 %R=0.500
New Transformer.3170142 phases=3 windings=2 Xhl=1.200
~ wdg=1 bus=25423-12806578.1.2.3 conn=delta Kv=13.8 Kva=112.5 %R=0.500
~ wdg=2 bus=3170142-12806677.1.2.3.4 conn=wye Kv=0.2200 Kva=112.5 %R=0.500
New Transformer.3170140 phases=3 windings=2 Xhl=1.200
~ wdg=1 bus=25423-12806585.1.2.3 conn=delta Kv=13.8 Kva=75.0 %R=0.500
~ wdg=2 bus=3170140-12806605.1.2.3.4 conn=wye Kv=0.2200 Kva=75.0 %R=0.500
New Transformer.3170137 phases=3 windings=2 Xhl=1.200
~ wdg=1 bus=25423-12806591.1.2.3 conn=delta Kv=13.8 Kva=112.5 %R=0.500
~ wdg=2 bus=3170137-12806647.1.2.3.4 conn=wye Kv=0.2200 Kva=112.5 %R=0.500
New Transformer.2599886 phases=1 windings=3 Xhl=1.200 Xht=1.200 Xlt=0.600
~ wdg=1 bus=25423-9918717.1 conn=wye Kv=7.9674 Kva=15.0 %R=0.500
~ wdg=2 bus=2599886-9918717v.1.4 conn=wye Kv=0.1100 Kva=15.0 %R=0.500
~ wdg=3 bus=2599886-9918717v.4.2 conn=wye Kv=0.1100 Kva=15.0 %R=0.500
New Transformer.2600137 phases=1 windings=3 Xhl=1.200 Xht=1.200 Xlt=0.600
~ wdg=1 bus=25423-9918830.1 conn=wye Kv=7.9674 Kva=5.0 %R=0.500
~ wdg=2 bus=2600137-9918830v.1.4 conn=wye Kv=0.1100 Kva=5.0 %R=0.500
~ wdg=3 bus=2600137-9918830v.4.2 conn=wye Kv=0.1100 Kva=5.0 %R=0.500
New Transformer.2600017 phases=1 windings=3 Xhl=1.200 Xht=1.200 Xlt=0.600
~ wdg=1 bus=25423-9918920.1 conn=wye Kv=7.9674 Kva=10.0 %R=0.500
~ wdg=2 bus=2600017-9918920v.1.4 conn=wye Kv=0.1100 Kva=10.0 %R=0.500
~ wdg=3 bus=2600017-9918920v.4.2 conn=wye Kv=0.1100 Kva=10.0 %R=0.500
New Transformer.2599889 phases=1 windings=3 Xhl=1.200 Xht=1.200 Xlt=0.600
~ wdg=1 bus=25423-9918922.1 conn=wye Kv=7.9674 Kva=15.0 %R=0.500
~ wdg=2 bus=2599889-9918922v.1.4 conn=wye Kv=0.1100 Kva=15.0 %R=0.500
~ wdg=3 bus=2599889-9918922v.4.2 conn=wye Kv=0.1100 Kva=15.0 %R=0.500
New Transformer.2599875 phases=3 windings=2 Xhl=1.200
~ wdg=1 bus=25423-9918923.1.2.3 conn=delta Kv=13.8 Kva=75.0 %R=0.500
~ wdg=2 bus=2599875-9918923v.1.2.3.4 conn=wye Kv=0.2200 Kva=75.0 %R=0.500
New Transformer.2599911 phases=1 windings=3 Xhl=1.200 Xht=1.200 Xlt=0.600
~ wdg=1 bus=25423-9918930.1 conn=wye Kv=7.9674 Kva=15.0 %R=0.500
~ wdg=2 bus=2599911-9918930v.1.4 conn=wye Kv=0.1100 Kva=15.0 %R=0.500
~ wdg=3 bus=2599911-9918930v.4.2 conn=wye Kv=0.1100 Kva=15.0 %R=0.500
New Transformer.2599858 phases=1 windings=3 Xhl=1.200 Xht=1.200 Xlt=0.600
~ wdg=1 bus=25423-9918943.1 conn=wye Kv=7.9674 Kva=5.0 %R=0.500
~ wdg=2 bus=2599858-9918943v.1.4 conn=wye Kv=0.1100 Kva=5.0 %R=0.500
~ wdg=3 bus=2599858-9918943v.4.2 conn=wye Kv=0.1100 Kva=5.0 %R=0.500
New Transformer.2599942 phases=1 windings=3 Xhl=1.200 Xht=1.200 Xlt=0.600
~ wdg=1 bus=25423-9919136.1 conn=wye Kv=7.9674 Kva=10.0 %R=0.500
~ wdg=2 bus=2599942-9919136v.1.4 conn=wye Kv=0.1100 Kva=10.0 %R=0.500
~ wdg=3 bus=2599942-9919136v.4.2 conn=wye Kv=0.1100 Kva=10.0 %R=0.500
New Transformer.2599988 phases=1 windings=3 Xhl=1.200 Xht=1.200 Xlt=0.600
~ wdg=1 bus=25423-9919334.1 conn=wye Kv=7.9674 Kva=15.0 %R=0.500
~ wdg=2 bus=2599988-9919334v.1.4 conn=wye Kv=0.1100 Kva=15.0 %R=0.500
~ wdg=3 bus=2599988-9919334v.4.2 conn=wye Kv=0.1100 Kva=15.0 %R=0.500
New Transformer.2600015 phases=3 windings=2 Xhl=1.200
~ wdg=1 bus=25423-9919341.1.2.3 conn=delta Kv=13.8 Kva=112.5 %R=0.500
~ wdg=2 bus=2600015-9919341v.1.2.3.4 conn=wye Kv=0.2200 Kva=112.5 %R=0.500
New Transformer.2599887 phases=1 windings=3 Xhl=1.200 Xht=1.200 Xlt=0.600
~ wdg=1 bus=25423-9919511.1 conn=wye Kv=7.9674 Kva=15.0 %R=0.500
~ wdg=2 bus=2599887-9919511v.1.4 conn=wye Kv=0.1100 Kva=15.0 %R=0.500
~ wdg=3 bus=2599887-9919511v.4.2 conn=wye Kv=0.1100 Kva=15.0 %R=0.500
New Transformer.2600019 phases=1 windings=3 Xhl=1.200 Xht=1.200 Xlt=0.600
~ wdg=1 bus=25423-9919520.1 conn=wye Kv=7.9674 Kva=15.0 %R=0.500
~ wdg=2 bus=2600019-9919520v.1.4 conn=wye Kv=0.1100 Kva=15.0 %R=0.500
~ wdg=3 bus=2600019-9919520v.4.2 conn=wye Kv=0.1100 Kva=15.0 %R=0.500
New Transformer.2600032 phases=1 windings=3 Xhl=1.200 Xht=1.200 Xlt=0.600
~ wdg=1 bus=25423-9919522.1 conn=wye Kv=7.9674 Kva=10.0 %R=0.500
~ wdg=2 bus=2600032-9919522v.1.4 conn=wye Kv=0.1100 Kva=10.0 %R=0.500
~ wdg=3 bus=2600032-9919522v.4.2 conn=wye Kv=0.1100 Kva=10.0 %R=0.500
New Transformer.2600056 phases=1 windings=3 Xhl=1.200 Xht=1.200 Xlt=0.600
~ wdg=1 bus=25423-9919524.1 conn=wye Kv=7.9674 Kva=15.0 %R=0.500
~ wdg=2 bus=2600056-9919524v.1.4 conn=wye Kv=0.1100 Kva=15.0 %R=0.500
~ wdg=3 bus=2600056-9919524v.4.2 conn=wye Kv=0.1100 Kva=15.0 %R=0.500
New Transformer.2599941 phases=1 windings=3 Xhl=1.200 Xht=1.200 Xlt=0.600
~ wdg=1 bus=25423-9919527.1 conn=wye Kv=7.9674 Kva=15.0 %R=0.500
~ wdg=2 bus=2599941-9919527v.1.4 conn=wye Kv=0.1100 Kva=15.0 %R=0.500
~ wdg=3 bus=2599941-9919527v.4.2 conn=wye Kv=0.1100 Kva=15.0 %R=0.500
New Transformer.2599940 phases=1 windings=3 Xhl=1.200 Xht=1.200 Xlt=0.600
~ wdg=1 bus=25423-9919586.1 conn=wye Kv=7.9674 Kva=15.0 %R=0.500
~ wdg=2 bus=2599940-9919587.1.4 conn=wye Kv=0.1100 Kva=15.0 %R=0.500
~ wdg=3 bus=2599940-9919587.4.2 conn=wye Kv=0.1100 Kva=15.0 %R=0.500
New Transformer.2600067 phases=1 windings=3 Xhl=1.200 Xht=1.200 Xlt=0.600
~ wdg=1 bus=25423-9919636.1 conn=wye Kv=7.9674 Kva=25.0 %R=0.500
~ wdg=2 bus=2600067-9919636v.1.4 conn=wye Kv=0.1100 Kva=25.0 %R=0.500
~ wdg=3 bus=2600067-9919636v.4.2 conn=wye Kv=0.1100 Kva=25.0 %R=0.500
New Transformer.2599982 phases=1 windings=3 Xhl=1.200 Xht=1.200 Xlt=0.600
~ wdg=1 bus=25423-9919793.1 conn=wye Kv=7.9674 Kva=5.0 %R=0.500
~ wdg=2 bus=2599982-9919793v.1.4 conn=wye Kv=0.1100 Kva=5.0 %R=0.500
~ wdg=3 bus=2599982-9919793v.4.2 conn=wye Kv=0.1100 Kva=5.0 %R=0.500
New Transformer.2600094 phases=1 windings=3 Xhl=1.200 Xht=1.200 Xlt=0.600
~ wdg=1 bus=25423-9919826.1 conn=wye Kv=7.9674 Kva=15.0 %R=0.500
~ wdg=2 bus=2600094-9919826v.1.4 conn=wye Kv=0.1100 Kva=15.0 %R=0.500
~ wdg=3 bus=2600094-9919826v.4.2 conn=wye Kv=0.1100 Kva=15.0 %R=0.500
New Transformer.2599987 phases=1 windings=3 Xhl=1.200 Xht=1.200 Xlt=0.600
~ wdg=1 bus=25423-9919925.1 conn=wye Kv=7.9674 Kva=5.0 %R=0.500
~ wdg=2 bus=2599987-9919925v.1.4 conn=wye Kv=0.1100 Kva=5.0 %R=0.500
~ wdg=3 bus=2599987-9919925v.4.2 conn=wye Kv=0.1100 Kva=5.0 %R=0.500
New Transformer.2600058 phases=1 windings=3 Xhl=1.200 Xht=1.200 Xlt=0.600
~ wdg=1 bus=25423-9919933.1 conn=wye Kv=7.9674 Kva=15.0 %R=0.500
~ wdg=2 bus=2600058-9919933v.1.4 conn=wye Kv=0.1100 Kva=15.0 %R=0.500
~ wdg=3 bus=2600058-9919933v.4.2 conn=wye Kv=0.1100 Kva=15.0 %R=0.500
New Transformer.2599878 phases=1 windings=3 Xhl=1.200 Xht=1.200 Xlt=0.600
~ wdg=1 bus=25423-9919934.1 conn=wye Kv=7.9674 Kva=5.0 %R=0.500
~ wdg=2 bus=2599878-9919934v.1.4 conn=wye Kv=0.1100 Kva=5.0 %R=0.500
~ wdg=3 bus=2599878-9919934v.4.2 conn=wye Kv=0.1100 Kva=5.0 %R=0.500
New Transformer.2599902 phases=1 windings=3 Xhl=1.200 Xht=1.200 Xlt=0.600
~ wdg=1 bus=25423-9919984.1 conn=wye Kv=7.9674 Kva=15.0 %R=0.500
~ wdg=2 bus=2599902-9919985.1.4 conn=wye Kv=0.1100 Kva=15.0 %R=0.500
~ wdg=3 bus=2599902-9919985.4.2 conn=wye Kv=0.1100 Kva=15.0 %R=0.500
New Transformer.2600036 phases=1 windings=3 Xhl=1.200 Xht=1.200 Xlt=0.600
~ wdg=1 bus=25423-9920092.1 conn=wye Kv=7.9674 Kva=10.0 %R=0.500
~ wdg=2 bus=2600036-9920092v.1.4 conn=wye Kv=0.1100 Kva=10.0 %R=0.500
~ wdg=3 bus=2600036-9920092v.4.2 conn=wye Kv=0.1100 Kva=10.0 %R=0.500
New Transformer.2599913 phases=1 windings=3 Xhl=1.200 Xht=1.200 Xlt=0.600
~ wdg=1 bus=25423-9920205.1 conn=wye Kv=7.9674 Kva=10.0 %R=0.500
~ wdg=2 bus=2599913-9920205v.1.4 conn=wye Kv=0.1100 Kva=10.0 %R=0.500
~ wdg=3 bus=2599913-9920205v.4.2 conn=wye Kv=0.1100 Kva=10.0 %R=0.500
New Transformer.2599834 phases=1 windings=3 Xhl=1.200 Xht=1.200 Xlt=0.600
~ wdg=1 bus=25423-9920208.1 conn=wye Kv=7.9674 Kva=25.0 %R=0.500
~ wdg=2 bus=2599834-9920208v.1.4 conn=wye Kv=0.1100 Kva=25.0 %R=0.500
~ wdg=3 bus=2599834-9920208v.4.2 conn=wye Kv=0.1100 Kva=25.0 %R=0.500
New Transformer.2850407 phases=3 windings=2 Xhl=1.200
~ wdg=1 bus=25424-11296419.1.2.3 conn=delta Kv=13.8 Kva=75.0 %R=0.500
~ wdg=2 bus=2850407-11296413.1.2.3.4 conn=wye Kv=0.2200 Kva=75.0 %R=0.500
New Transformer.2850408 phases=3 windings=2 Xhl=1.200
~ wdg=1 bus=25424-11296427.1.2.3 conn=delta Kv=13.8 Kva=45.0 %R=0.500
~ wdg=2 bus=2850408-11296428.1.2.3.4 conn=wye Kv=0.2200 Kva=45.0 %R=0.500
New Transformer.2864111 phases=3 windings=2 Xhl=1.200
~ wdg=1 bus=25424-11327109.1.2.3 conn=delta Kv=13.8 Kva=45.0 %R=0.500
~ wdg=2 bus=2864111-11327106.1.2.3.4 conn=wye Kv=0.2200 Kva=45.0 %R=0.500
New Transformer.2864112 phases=3 windings=2 Xhl=1.200
~ wdg=1 bus=25424-11327155.1.2.3 conn=delta Kv=13.8 Kva=45.0 %R=0.500
~ wdg=2 bus=2864112-11327193.1.2.3.4 conn=wye Kv=0.2200 Kva=45.0 %R=0.500
New Transformer.2893296 phases=3 windings=2 Xhl=1.200
~ wdg=1 bus=25424-11369217.1.2.3 conn=delta Kv=13.8 Kva=112.5 %R=0.500
~ wdg=2 bus=2893296-11369217v.1.2.3.4 conn=wye Kv=0.2200 Kva=112.5 %R=0.500
New Transformer.2937131 phases=3 windings=2 Xhl=1.200
~ wdg=1 bus=25424-11442950.1.2.3 conn=delta Kv=13.8 Kva=45.0 %R=0.500
~ wdg=2 bus=2937131-11442954.1.2.3.4 conn=wye Kv=0.2200 Kva=45.0 %R=0.500
New Transformer.3028720 phases=3 windings=2 Xhl=1.200
~ wdg=1 bus=25424-11895595.1.2.3 conn=delta Kv=13.8 Kva=45.0 %R=0.500
~ wdg=2 bus=3028720-11895602.1.2.3.4 conn=wye Kv=0.2200 Kva=45.0 %R=0.500
New Transformer.2603699 phases=3 windings=2 Xhl=1.200
~ wdg=1 bus=25424-12285437.1.2.3 conn=delta Kv=13.8 Kva=30.0 %R=0.500
~ wdg=2 bus=2603699-9937864.1.2.3.4 conn=wye Kv=0.2200 Kva=30.0 %R=0.500
New Transformer.3119415 phases=3 windings=2 Xhl=1.200
~ wdg=1 bus=25424-12474701.1.2.3 conn=delta Kv=13.8 Kva=75.0 %R=0.500
~ wdg=2 bus=3119415-9939872.1.2.3.4 conn=wye Kv=0.2200 Kva=75.0 %R=0.500
New Transformer.3121672 phases=3 windings=2 Xhl=1.200
~ wdg=1 bus=25424-12488424.1.2.3 conn=delta Kv=13.8 Kva=75.0 %R=0.500
~ wdg=2 bus=3121672-12488424v.1.2.3.4 conn=wye Kv=0.2200 Kva=75.0 %R=0.500
New Transformer.3136487 phases=1 windings=3 Xhl=1.200 Xht=1.200 Xlt=0.600
~ wdg=1 bus=25424-12576731.2 conn=wye Kv=7.9674 Kva=10.0 %R=0.500
~ wdg=2 bus=3136487-12576731v.1.4 conn=wye Kv=0.1100 Kva=10.0 %R=0.500
~ wdg=3 bus=3136487-12576731v.4.2 conn=wye Kv=0.1100 Kva=10.0 %R=0.500
New Transformer.3188870 phases=1 windings=3 Xhl=1.200 Xht=1.200 Xlt=0.600
~ wdg=1 bus=25424-12973718.3 conn=wye Kv=7.9674 Kva=5.0 %R=0.500
~ wdg=2 bus=3188870-12973718v.1.4 conn=wye Kv=0.1100 Kva=5.0 %R=0.500
~ wdg=3 bus=3188870-12973718v.4.2 conn=wye Kv=0.1100 Kva=5.0 %R=0.500
New Transformer.2603269 phases=3 windings=2 Xhl=1.200
~ wdg=1 bus=25424-9935914.1.2.3 conn=delta Kv=13.8 Kva=75.0 %R=0.500
~ wdg=2 bus=2603269-9935915.1.2.3.4 conn=wye Kv=0.2200 Kva=75.0 %R=0.500
New Transformer.2603049 phases=3 windings=2 Xhl=1.200
~ wdg=1 bus=25424-9936309.1.2.3 conn=delta Kv=13.8 Kva=30.0 %R=0.500
~ wdg=2 bus=2603049-9936310.1.2.3.4 conn=wye Kv=0.2200 Kva=30.0 %R=0.500
New Transformer.2603281 phases=3 windings=2 Xhl=1.200
~ wdg=1 bus=25424-9936323.1.2.3 conn=delta Kv=13.8 Kva=75.0 %R=0.500
~ wdg=2 bus=2603281-9936323v.1.2.3.4 conn=wye Kv=0.2200 Kva=75.0 %R=0.500
New Transformer.2603302 phases=3 windings=2 Xhl=1.200
~ wdg=1 bus=25424-9936335.1.2.3 conn=delta Kv=13.8 Kva=45.0 %R=0.500
~ wdg=2 bus=2603302-9936336.1.2.3.4 conn=wye Kv=0.2200 Kva=45.0 %R=0.500
New Transformer.2603594 phases=1 windings=3 Xhl=1.200 Xht=1.200 Xlt=0.600
~ wdg=1 bus=25424-9936360.1 conn=wye Kv=7.9674 Kva=15.0 %R=0.500
~ wdg=2 bus=2603594-9936360v.1.4 conn=wye Kv=0.1100 Kva=15.0 %R=0.500
~ wdg=3 bus=2603594-9936360v.4.2 conn=wye Kv=0.1100 Kva=15.0 %R=0.500
New Transformer.2603424 phases=1 windings=3 Xhl=1.200 Xht=1.200 Xlt=0.600
~ wdg=1 bus=25424-9936373.1 conn=wye Kv=7.9674 Kva=5.0 %R=0.500
~ wdg=2 bus=2603424-9936373v.1.4 conn=wye Kv=0.1100 Kva=5.0 %R=0.500
~ wdg=3 bus=2603424-9936373v.4.2 conn=wye Kv=0.1100 Kva=5.0 %R=0.500
New Transformer.2603303 phases=3 windings=2 Xhl=1.200
~ wdg=1 bus=25424-9936380.1.2.3 conn=delta Kv=13.8 Kva=75.0 %R=0.500
~ wdg=2 bus=2603303-9936380v.1.2.3.4 conn=wye Kv=0.2200 Kva=75.0 %R=0.500
New Transformer.2603254 phases=1 windings=3 Xhl=1.200 Xht=1.200 Xlt=0.600
~ wdg=1 bus=25424-9936476.3 conn=wye Kv=7.9674 Kva=5.0 %R=0.500
~ wdg=2 bus=2603254-9936476v.1.4 conn=wye Kv=0.1100 Kva=5.0 %R=0.500
~ wdg=3 bus=2603254-9936476v.4.2 conn=wye Kv=0.1100 Kva=5.0 %R=0.500
New Transformer.2603425 phases=3 windings=2 Xhl=1.200
~ wdg=1 bus=25424-9936485.1.2.3 conn=delta Kv=13.8 Kva=30.0 %R=0.500
~ wdg=2 bus=2603425-9936486.1.2.3.4 conn=wye Kv=0.2200 Kva=30.0 %R=0.500
New Transformer.2603614 phases=3 windings=2 Xhl=1.200
~ wdg=1 bus=25424-9936487.1.2.3 conn=delta Kv=13.8 Kva=30.0 %R=0.500
~ wdg=2 bus=2603614-9936488.1.2.3.4 conn=wye Kv=0.2200 Kva=30.0 %R=0.500
New Transformer.2603355 phases=3 windings=2 Xhl=1.200
~ wdg=1 bus=25424-9936636.1.2.3 conn=delta Kv=13.8 Kva=45.0 %R=0.500
~ wdg=2 bus=2603355-9936637.1.2.3.4 conn=wye Kv=0.2200 Kva=45.0 %R=0.500
New Transformer.2603074 phases=3 windings=2 Xhl=1.200
~ wdg=1 bus=25424-9936765.1.2.3 conn=delta Kv=13.8 Kva=30.0 %R=0.500
~ wdg=2 bus=2603074-9936766.1.2.3.4 conn=wye Kv=0.2200 Kva=30.0 %R=0.500
New Transformer.2603366 phases=3 windings=2 Xhl=1.200
~ wdg=1 bus=25424-9937317.1.2.3 conn=delta Kv=13.8 Kva=45.0 %R=0.500
~ wdg=2 bus=2603366-9937318.1.2.3.4 conn=wye Kv=0.2200 Kva=45.0 %R=0.500
New Transformer.2603093 phases=3 windings=2 Xhl=1.200
~ wdg=1 bus=25424-9937729.1.2.3 conn=delta Kv=13.8 Kva=30.0 %R=0.500
~ wdg=2 bus=2603093-9937730.1.2.3.4 conn=wye Kv=0.2200 Kva=30.0 %R=0.500
New Transformer.2603128 phases=3 windings=2 Xhl=1.200
~ wdg=1 bus=25424-9937731.1.2.3 conn=delta Kv=13.8 Kva=75.0 %R=0.500
~ wdg=2 bus=2603128-9937732.1.2.3.4 conn=wye Kv=0.2200 Kva=75.0 %R=0.500
New Transformer.2603661 phases=3 windings=2 Xhl=1.200
~ wdg=1 bus=25424-9937733.1.2.3 conn=delta Kv=13.8 Kva=75.0 %R=0.500
~ wdg=2 bus=2603661-9937734.1.2.3.4 conn=wye Kv=0.2200 Kva=75.0 %R=0.500
New Transformer.2603655 phases=3 windings=2 Xhl=1.200
~ wdg=1 bus=25424-9937767.1.2.3 conn=delta Kv=13.8 Kva=45.0 %R=0.500
~ wdg=2 bus=2603655-9937767v.1.2.3.4 conn=wye Kv=0.2200 Kva=45.0 %R=0.500
New Transformer.2603130 phases=3 windings=2 Xhl=1.200
~ wdg=1 bus=25424-9937943.1.2.3 conn=delta Kv=13.8 Kva=45.0 %R=0.500
~ wdg=2 bus=2603130-9937944.1.2.3.4 conn=wye Kv=0.2200 Kva=45.0 %R=0.500
New Transformer.2603301 phases=3 windings=2 Xhl=1.200
~ wdg=1 bus=25424-9937945.1.2.3 conn=delta Kv=13.8 Kva=30.0 %R=0.500
~ wdg=2 bus=2603301-9937946.1.2.3.4 conn=wye Kv=0.2200 Kva=30.0 %R=0.500
New Transformer.3124026 phases=3 windings=2 Xhl=1.200
~ wdg=1 bus=25424-9938042.1.2.3 conn=delta Kv=13.8 Kva=75.0 %R=0.500
~ wdg=2 bus=3124026-9938042v.1.2.3.4 conn=wye Kv=0.2200 Kva=75.0 %R=0.500
New Transformer.2603491 phases=3 windings=2 Xhl=1.200
~ wdg=1 bus=25424-9938320.1.2.3 conn=delta Kv=13.8 Kva=45.0 %R=0.500
~ wdg=2 bus=2603491-9938321.1.2.3.4 conn=wye Kv=0.2200 Kva=45.0 %R=0.500
New Transformer.2603458 phases=3 windings=2 Xhl=1.200
~ wdg=1 bus=25424-9938813.1.2.3 conn=delta Kv=13.8 Kva=45.0 %R=0.500
~ wdg=2 bus=2603458-9938814.1.2.3.4 conn=wye Kv=0.2200 Kva=45.0 %R=0.500
New Transformer.3090027 phases=3 windings=2 Xhl=1.200
~ wdg=1 bus=25424-9939024.1.2.3 conn=delta Kv=13.8 Kva=75.0 %R=0.500
~ wdg=2 bus=3090027-9939025.1.2.3.4 conn=wye Kv=0.2200 Kva=75.0 %R=0.500
New Transformer.2603580 phases=3 windings=2 Xhl=1.200
~ wdg=1 bus=25424-9939030.1.2.3 conn=delta Kv=13.8 Kva=75.0 %R=0.500
~ wdg=2 bus=2603580-9939031.1.2.3.4 conn=wye Kv=0.2200 Kva=75.0 %R=0.500
New Transformer.2603666 phases=3 windings=2 Xhl=1.200
~ wdg=1 bus=25424-9939034.1.2.3 conn=delta Kv=13.8 Kva=75.0 %R=0.500
~ wdg=2 bus=2603666-9939035.1.2.3.4 conn=wye Kv=0.2200 Kva=75.0 %R=0.500
New Transformer.2603671 phases=3 windings=2 Xhl=1.200
~ wdg=1 bus=25424-9939036.1.2.3 conn=delta Kv=13.8 Kva=45.0 %R=0.500
~ wdg=2 bus=2603671-9939037.1.2.3.4 conn=wye Kv=0.2200 Kva=45.0 %R=0.500
New Transformer.2603551 phases=3 windings=2 Xhl=1.200
~ wdg=1 bus=25424-9939038.1.2.3 conn=delta Kv=13.8 Kva=45.0 %R=0.500
~ wdg=2 bus=2603551-9939039.1.2.3.4 conn=wye Kv=0.2200 Kva=45.0 %R=0.500
New Transformer.2603284 phases=3 windings=2 Xhl=1.200
~ wdg=1 bus=25424-9939040.1.2.3 conn=delta Kv=13.8 Kva=75.0 %R=0.500
~ wdg=2 bus=2603284-9939041.1.2.3.4 conn=wye Kv=0.2200 Kva=75.0 %R=0.500
New Transformer.2603345 phases=3 windings=2 Xhl=1.200
~ wdg=1 bus=25424-9939050.1.2.3 conn=delta Kv=13.8 Kva=45.0 %R=0.500
~ wdg=2 bus=2603345-9939051.1.2.3.4 conn=wye Kv=0.2200 Kva=45.0 %R=0.500
New Transformer.2603395 phases=3 windings=2 Xhl=1.200
~ wdg=1 bus=25424-9939122.1.2.3 conn=delta Kv=13.8 Kva=30.0 %R=0.500
~ wdg=2 bus=2603395-9939123.1.2.3.4 conn=wye Kv=0.2200 Kva=30.0 %R=0.500
New Transformer.2603167 phases=1 windings=3 Xhl=1.200 Xht=1.200 Xlt=0.600
~ wdg=1 bus=25424-9939357.1 conn=wye Kv=7.9674 Kva=15.0 %R=0.500
~ wdg=2 bus=2603167-9939357v.1.4 conn=wye Kv=0.1100 Kva=15.0 %R=0.500
~ wdg=3 bus=2603167-9939357v.4.2 conn=wye Kv=0.1100 Kva=15.0 %R=0.500
New Transformer.2603547 phases=3 windings=2 Xhl=1.200
~ wdg=1 bus=25424-9939364.1.2.3 conn=delta Kv=13.8 Kva=45.0 %R=0.500
~ wdg=2 bus=2603547-9939365.1.2.3.4 conn=wye Kv=0.2200 Kva=45.0 %R=0.500
New Transformer.2603386 phases=3 windings=2 Xhl=1.200
~ wdg=1 bus=25424-9939736.1.2.3 conn=delta Kv=13.8 Kva=30.0 %R=0.500
~ wdg=2 bus=2603386-9939737.1.2.3.4 conn=wye Kv=0.2200 Kva=30.0 %R=0.500
New Transformer.2603205 phases=3 windings=2 Xhl=1.200
~ wdg=1 bus=25424-9940036.1.2.3 conn=delta Kv=13.8 Kva=30.0 %R=0.500
~ wdg=2 bus=2603205-9940037.1.2.3.4 conn=wye Kv=0.2200 Kva=30.0 %R=0.500
New Transformer.2603591 phases=1 windings=3 Xhl=1.200 Xht=1.200 Xlt=0.600
~ wdg=1 bus=25424-9940064.2 conn=wye Kv=7.9674 Kva=10.0 %R=0.500
~ wdg=2 bus=2603591-9940064v.1.4 conn=wye Kv=0.1100 Kva=10.0 %R=0.500
~ wdg=3 bus=2603591-9940064v.4.2 conn=wye Kv=0.1100 Kva=10.0 %R=0.500
New Transformer.2603358 phases=1 windings=3 Xhl=1.200 Xht=1.200 Xlt=0.600
~ wdg=1 bus=25424-9940072.3 conn=wye Kv=7.9674 Kva=15.0 %R=0.500
~ wdg=2 bus=2603358-9940072v.1.4 conn=wye Kv=0.1100 Kva=15.0 %R=0.500
~ wdg=3 bus=2603358-9940072v.4.2 conn=wye Kv=0.1100 Kva=15.0 %R=0.500
New Transformer.2603125 phases=3 windings=2 Xhl=1.200
~ wdg=1 bus=25424-9940278.1.2.3 conn=delta Kv=13.8 Kva=45.0 %R=0.500
~ wdg=2 bus=2603125-9940279.1.2.3.4 conn=wye Kv=0.2200 Kva=45.0 %R=0.500
New Transformer.2603023 phases=1 windings=3 Xhl=1.200 Xht=1.200 Xlt=0.600
~ wdg=1 bus=25424-9940280.3 conn=wye Kv=7.9674 Kva=10.0 %R=0.500
~ wdg=2 bus=2603023-9940280v.1.4 conn=wye Kv=0.1100 Kva=10.0 %R=0.500
~ wdg=3 bus=2603023-9940280v.4.2 conn=wye Kv=0.1100 Kva=10.0 %R=0.500
New Transformer.2603047 phases=3 windings=2 Xhl=1.200
~ wdg=1 bus=25424-9940285.1.2.3 conn=delta Kv=13.8 Kva=30.0 %R=0.500
~ wdg=2 bus=2603047-9940286.1.2.3.4 conn=wye Kv=0.2200 Kva=30.0 %R=0.500
New Transformer.2603494 phases=1 windings=3 Xhl=1.200 Xht=1.200 Xlt=0.600
~ wdg=1 bus=25424-9940292.1 conn=wye Kv=7.9674 Kva=15.0 %R=0.500
~ wdg=2 bus=2603494-9940292v.1.4 conn=wye Kv=0.1100 Kva=15.0 %R=0.500
~ wdg=3 bus=2603494-9940292v.4.2 conn=wye Kv=0.1100 Kva=15.0 %R=0.500
New Transformer.2603555 phases=3 windings=2 Xhl=1.200
~ wdg=1 bus=25424-9940410.1.2.3 conn=delta Kv=13.8 Kva=45.0 %R=0.500
~ wdg=2 bus=2603555-9940411.1.2.3.4 conn=wye Kv=0.2200 Kva=45.0 %R=0.500
New Transformer.2603229 phases=3 windings=2 Xhl=1.200
~ wdg=1 bus=25424-9940416.1.2.3 conn=delta Kv=13.8 Kva=75.0 %R=0.500
~ wdg=2 bus=2603229-9940417.1.2.3.4 conn=wye Kv=0.2200 Kva=75.0 %R=0.500
New Transformer.2603629 phases=3 windings=2 Xhl=1.200
~ wdg=1 bus=25424-9940420.1.2.3 conn=delta Kv=13.8 Kva=75.0 %R=0.500
~ wdg=2 bus=2603629-9940421.1.2.3.4 conn=wye Kv=0.2200 Kva=75.0 %R=0.500
New Transformer.2603163 phases=3 windings=2 Xhl=1.200
~ wdg=1 bus=25424-9940422.1.2.3 conn=delta Kv=13.8 Kva=75.0 %R=0.500
~ wdg=2 bus=2603163-9940423.1.2.3.4 conn=wye Kv=0.2200 Kva=75.0 %R=0.500
New Transformer.2603418 phases=3 windings=2 Xhl=1.200
~ wdg=1 bus=25424-9940525.1.2.3 conn=delta Kv=13.8 Kva=112.5 %R=0.500
~ wdg=2 bus=2603418-9940526.1.2.3.4 conn=wye Kv=0.2200 Kva=112.5 %R=0.500
New Transformer.3123610 phases=1 windings=3 Xhl=1.200 Xht=1.200 Xlt=0.600
~ wdg=1 bus=25424-9940831.1 conn=wye Kv=7.9674 Kva=75.0 %R=0.500
~ wdg=2 bus=3123610-9940831v.1.4 conn=wye Kv=0.1100 Kva=75.0 %R=0.500
~ wdg=3 bus=3123610-9940831v.4.2 conn=wye Kv=0.1100 Kva=75.0 %R=0.500
New Transformer.2603022 phases=1 windings=3 Xhl=1.200 Xht=1.200 Xlt=0.600
~ wdg=1 bus=25424-9940868.2 conn=wye Kv=7.9674 Kva=5.0 %R=0.500
~ wdg=2 bus=2603022-9940868v.1.4 conn=wye Kv=0.1100 Kva=5.0 %R=0.500
~ wdg=3 bus=2603022-9940868v.4.2 conn=wye Kv=0.1100 Kva=5.0 %R=0.500
New Transformer.2603046 phases=3 windings=2 Xhl=1.200
~ wdg=1 bus=25424-9940881.1.2.3 conn=delta Kv=13.8 Kva=30.0 %R=0.500
~ wdg=2 bus=2603046-9940882.1.2.3.4 conn=wye Kv=0.2200 Kva=30.0 %R=0.500
New Transformer.2863377 phases=3 windings=2 Xhl=1.200
~ wdg=1 bus=25987-11325827.1.2.3 conn=delta Kv=13.8 Kva=45.0 %R=0.500
~ wdg=2 bus=2863377-11325843.1.2.3.4 conn=wye Kv=0.2200 Kva=45.0 %R=0.500
New Transformer.2903334 phases=1 windings=3 Xhl=1.200 Xht=1.200 Xlt=0.600
~ wdg=1 bus=25987-11382952.1 conn=wye Kv=7.9674 Kva=25.0 %R=0.500
~ wdg=2 bus=2903334-11382952v.1.4 conn=wye Kv=0.1100 Kva=25.0 %R=0.500
~ wdg=3 bus=2903334-11382952v.4.2 conn=wye Kv=0.1100 Kva=25.0 %R=0.500
New Transformer.2923926 phases=3 windings=2 Xhl=1.200
~ wdg=1 bus=25987-11415072.1.2.3 conn=delta Kv=13.8 Kva=45.0 %R=0.500
~ wdg=2 bus=2923926-11415072v.1.2.3.4 conn=wye Kv=0.2200 Kva=45.0 %R=0.500
New Transformer.2603290 phases=3 windings=2 Xhl=1.200
~ wdg=1 bus=25987-11864964.1.2.3 conn=delta Kv=13.8 Kva=15.0 %R=0.500
~ wdg=2 bus=2603290-11864964v.1.2.3.4 conn=wye Kv=0.2200 Kva=15.0 %R=0.500
New Transformer.3046455 phases=3 windings=2 Xhl=1.200
~ wdg=1 bus=25987-12001857.1.2.3 conn=delta Kv=13.8 Kva=112.5 %R=0.500
~ wdg=2 bus=3046455-12001857v.1.2.3.4 conn=wye Kv=0.2200 Kva=112.5 %R=0.500
New Transformer.3125948 phases=1 windings=3 Xhl=1.200 Xht=1.200 Xlt=0.600
~ wdg=1 bus=25987-12512088.2 conn=wye Kv=7.9674 Kva=5.0 %R=0.500
~ wdg=2 bus=3125948-12512088v.1.4 conn=wye Kv=0.1100 Kva=5.0 %R=0.500
~ wdg=3 bus=3125948-12512088v.4.2 conn=wye Kv=0.1100 Kva=5.0 %R=0.500
New Transformer.3128433 phases=3 windings=2 Xhl=1.200
~ wdg=1 bus=25987-12525798.1.2.3 conn=delta Kv=13.8 Kva=112.5 %R=0.500
~ wdg=2 bus=3128433-12525798v.1.2.3.4 conn=wye Kv=0.2200 Kva=112.5 %R=0.500
New Transformer.3129050 phases=3 windings=2 Xhl=1.200
~ wdg=1 bus=25987-12531379.1.2.3 conn=delta Kv=13.8 Kva=112.5 %R=0.500
~ wdg=2 bus=3129050-12531379v.1.2.3.4 conn=wye Kv=0.2200 Kva=112.5 %R=0.500
New Transformer.3129798 phases=3 windings=2 Xhl=1.200
~ wdg=1 bus=25987-12536010.1.2.3 conn=delta Kv=13.8 Kva=225.0 %R=0.500
~ wdg=2 bus=3129798-12536010v.1.2.3.4 conn=wye Kv=0.2200 Kva=225.0 %R=0.500
New Transformer.3154571 phases=3 windings=2 Xhl=1.200
~ wdg=1 bus=25987-12675927.1.2.3 conn=delta Kv=13.8 Kva=75.0 %R=0.500
~ wdg=2 bus=3154571-12675927v.1.2.3.4 conn=wye Kv=0.2200 Kva=75.0 %R=0.500
New Transformer.3173985 phases=3 windings=2 Xhl=1.200
~ wdg=1 bus=25987-12851862.1.2.3 conn=delta Kv=13.8 Kva=75.0 %R=0.500
~ wdg=2 bus=3173985-12851862v.1.2.3.4 conn=wye Kv=0.2200 Kva=75.0 %R=0.500
New Transformer.2603595 phases=3 windings=2 Xhl=1.200
~ wdg=1 bus=25987-9935893.1.2.3 conn=delta Kv=13.8 Kva=112.5 %R=0.500
~ wdg=2 bus=2603595-9935894.1.2.3.4 conn=wye Kv=0.2200 Kva=112.5 %R=0.500
New Transformer.2603505 phases=3 windings=2 Xhl=1.200
~ wdg=1 bus=25987-9935895.1.2.3 conn=delta Kv=13.8 Kva=45.0 %R=0.500
~ wdg=2 bus=2603505-9935896.1.2.3.4 conn=wye Kv=0.2200 Kva=45.0 %R=0.500
New Transformer.2603280 phases=3 windings=2 Xhl=1.200
~ wdg=1 bus=25987-9935901.1.2.3 conn=delta Kv=13.8 Kva=75.0 %R=0.500
~ wdg=2 bus=2603280-9935902.1.2.3.4 conn=wye Kv=0.2200 Kva=75.0 %R=0.500
New Transformer.2603448 phases=3 windings=2 Xhl=1.200
~ wdg=1 bus=25987-9935903.1.2.3 conn=delta Kv=13.8 Kva=45.0 %R=0.500
~ wdg=2 bus=2603448-9935904.1.2.3.4 conn=wye Kv=0.2200 Kva=45.0 %R=0.500
New Transformer.2603579 phases=3 windings=2 Xhl=1.200
~ wdg=1 bus=25987-9935905.1.2.3 conn=delta Kv=13.8 Kva=45.0 %R=0.500
~ wdg=2 bus=2603579-9935906.1.2.3.4 conn=wye Kv=0.2200 Kva=45.0 %R=0.500
New Transformer.2603126 phases=3 windings=2 Xhl=1.200
~ wdg=1 bus=25987-9935907.1.2.3 conn=delta Kv=13.8 Kva=45.0 %R=0.500
~ wdg=2 bus=2603126-9935908.1.2.3.4 conn=wye Kv=0.2200 Kva=45.0 %R=0.500
New Transformer.2603020 phases=3 windings=2 Xhl=1.200
~ wdg=1 bus=25987-9935912.1.2.3 conn=delta Kv=13.8 Kva=45.0 %R=0.500
~ wdg=2 bus=2603020-9935913.1.2.3.4 conn=wye Kv=0.2200 Kva=45.0 %R=0.500
New Transformer.2603523 phases=1 windings=3 Xhl=1.200 Xht=1.200 Xlt=0.600
~ wdg=1 bus=25987-9935918.3 conn=wye Kv=7.9674 Kva=15.0 %R=0.500
~ wdg=2 bus=2603523-9935918v.1.4 conn=wye Kv=0.1100 Kva=15.0 %R=0.500
~ wdg=3 bus=2603523-9935918v.4.2 conn=wye Kv=0.1100 Kva=15.0 %R=0.500
New Transformer.2603235 phases=1 windings=3 Xhl=1.200 Xht=1.200 Xlt=0.600
~ wdg=1 bus=25987-9935929.2 conn=wye Kv=7.9674 Kva=10.0 %R=0.500
~ wdg=2 bus=2603235-9935929v.1.4 conn=wye Kv=0.1100 Kva=10.0 %R=0.500
~ wdg=3 bus=2603235-9935929v.4.2 conn=wye Kv=0.1100 Kva=10.0 %R=0.500
New Transformer.2603236 phases=1 windings=3 Xhl=1.200 Xht=1.200 Xlt=0.600
~ wdg=1 bus=25987-9935930.2 conn=wye Kv=7.9674 Kva=10.0 %R=0.500
~ wdg=2 bus=2603236-9935930v.1.4 conn=wye Kv=0.1100 Kva=10.0 %R=0.500
~ wdg=3 bus=2603236-9935930v.4.2 conn=wye Kv=0.1100 Kva=10.0 %R=0.500
New Transformer.2603604 phases=1 windings=3 Xhl=1.200 Xht=1.200 Xlt=0.600
~ wdg=1 bus=25987-9936172.2 conn=wye Kv=7.9674 Kva=10.0 %R=0.500
~ wdg=2 bus=2603604-9936172v.1.4 conn=wye Kv=0.1100 Kva=10.0 %R=0.500
~ wdg=3 bus=2603604-9936172v.4.2 conn=wye Kv=0.1100 Kva=10.0 %R=0.500
New Transformer.2603578 phases=3 windings=2 Xhl=1.200
~ wdg=1 bus=25987-9936324.1.2.3 conn=delta Kv=13.8 Kva=45.0 %R=0.500
~ wdg=2 bus=2603578-9936325.1.2.3.4 conn=wye Kv=0.2200 Kva=45.0 %R=0.500
New Transformer.2603232 phases=3 windings=2 Xhl=1.200
~ wdg=1 bus=25987-9936327.1.2.3 conn=delta Kv=13.8 Kva=45.0 %R=0.500
~ wdg=2 bus=2603232-9936328.1.2.3.4 conn=wye Kv=0.2200 Kva=45.0 %R=0.500
New Transformer.2603510 phases=1 windings=3 Xhl=1.200 Xht=1.200 Xlt=0.600
~ wdg=1 bus=25987-9936331.2 conn=wye Kv=7.9674 Kva=10.0 %R=0.500
~ wdg=2 bus=2603510-9936331v.1.4 conn=wye Kv=0.1100 Kva=10.0 %R=0.500
~ wdg=3 bus=2603510-9936331v.4.2 conn=wye Kv=0.1100 Kva=10.0 %R=0.500
New Transformer.2603427 phases=1 windings=3 Xhl=1.200 Xht=1.200 Xlt=0.600
~ wdg=1 bus=25987-9936334.3 conn=wye Kv=7.9674 Kva=15.0 %R=0.500
~ wdg=2 bus=2603427-9936334v.1.4 conn=wye Kv=0.1100 Kva=15.0 %R=0.500
~ wdg=3 bus=2603427-9936334v.4.2 conn=wye Kv=0.1100 Kva=15.0 %R=0.500
New Transformer.2603121 phases=1 windings=3 Xhl=1.200 Xht=1.200 Xlt=0.600
~ wdg=1 bus=25987-9936337.1 conn=wye Kv=7.9674 Kva=10.0 %R=0.500
~ wdg=2 bus=2603121-9936337v.1.4 conn=wye Kv=0.1100 Kva=10.0 %R=0.500
~ wdg=3 bus=2603121-9936337v.4.2 conn=wye Kv=0.1100 Kva=10.0 %R=0.500
New Transformer.2603608 phases=3 windings=2 Xhl=1.200
~ wdg=1 bus=25987-9936343.1.2.3 conn=delta Kv=13.8 Kva=112.5 %R=0.500
~ wdg=2 bus=2603608-9936343v.1.2.3.4 conn=wye Kv=0.2200 Kva=112.5 %R=0.500
New Transformer.2603532 phases=1 windings=3 Xhl=1.200 Xht=1.200 Xlt=0.600
~ wdg=1 bus=25987-9936344.1 conn=wye Kv=7.9674 Kva=5.0 %R=0.500
~ wdg=2 bus=2603532-9936344v.1.4 conn=wye Kv=0.1100 Kva=5.0 %R=0.500
~ wdg=3 bus=2603532-9936344v.4.2 conn=wye Kv=0.1100 Kva=5.0 %R=0.500
New Transformer.2603544 phases=1 windings=3 Xhl=1.200 Xht=1.200 Xlt=0.600
~ wdg=1 bus=25987-9936345.2 conn=wye Kv=7.9674 Kva=5.0 %R=0.500
~ wdg=2 bus=2603544-9936345v.1.4 conn=wye Kv=0.1100 Kva=5.0 %R=0.500
~ wdg=3 bus=2603544-9936345v.4.2 conn=wye Kv=0.1100 Kva=5.0 %R=0.500
New Transformer.2603619 phases=1 windings=3 Xhl=1.200 Xht=1.200 Xlt=0.600
~ wdg=1 bus=25987-9936347.1 conn=wye Kv=7.9674 Kva=25.0 %R=0.500
~ wdg=2 bus=2603619-9936347v.1.4 conn=wye Kv=0.1100 Kva=25.0 %R=0.500
~ wdg=3 bus=2603619-9936347v.4.2 conn=wye Kv=0.1100 Kva=25.0 %R=0.500
New Transformer.2602994 phases=1 windings=3 Xhl=1.200 Xht=1.200 Xlt=0.600
~ wdg=1 bus=25987-9936352.2 conn=wye Kv=7.9674 Kva=15.0 %R=0.500
~ wdg=2 bus=2602994-9936352v.1.4 conn=wye Kv=0.1100 Kva=15.0 %R=0.500
~ wdg=3 bus=2602994-9936352v.4.2 conn=wye Kv=0.1100 Kva=15.0 %R=0.500
New Transformer.2603506 phases=1 windings=3 Xhl=1.200 Xht=1.200 Xlt=0.600
~ wdg=1 bus=25987-9936355.1 conn=wye Kv=7.9674 Kva=15.0 %R=0.500
~ wdg=2 bus=2603506-9936355v.1.4 conn=wye Kv=0.1100 Kva=15.0 %R=0.500
~ wdg=3 bus=2603506-9936355v.4.2 conn=wye Kv=0.1100 Kva=15.0 %R=0.500
New Transformer.2603258 phases=1 windings=3 Xhl=1.200 Xht=1.200 Xlt=0.600
~ wdg=1 bus=25987-9936368.3 conn=wye Kv=7.9674 Kva=15.0 %R=0.500
~ wdg=2 bus=2603258-9936368v.1.4 conn=wye Kv=0.1100 Kva=15.0 %R=0.500
~ wdg=3 bus=2603258-9936368v.4.2 conn=wye Kv=0.1100 Kva=15.0 %R=0.500
New Transformer.2603616 phases=1 windings=3 Xhl=1.200 Xht=1.200 Xlt=0.600
~ wdg=1 bus=25987-9936369.3 conn=wye Kv=7.9674 Kva=10.0 %R=0.500
~ wdg=2 bus=2603616-9936369v.1.4 conn=wye Kv=0.1100 Kva=10.0 %R=0.500
~ wdg=3 bus=2603616-9936369v.4.2 conn=wye Kv=0.1100 Kva=10.0 %R=0.500
New Transformer.2603349 phases=1 windings=3 Xhl=1.200 Xht=1.200 Xlt=0.600
~ wdg=1 bus=25987-9936370.2 conn=wye Kv=7.9674 Kva=5.0 %R=0.500
~ wdg=2 bus=2603349-9936370v.1.4 conn=wye Kv=0.1100 Kva=5.0 %R=0.500
~ wdg=3 bus=2603349-9936370v.4.2 conn=wye Kv=0.1100 Kva=5.0 %R=0.500
New Transformer.2603447 phases=1 windings=3 Xhl=1.200 Xht=1.200 Xlt=0.600
~ wdg=1 bus=25987-9936445.1 conn=wye Kv=7.9674 Kva=10.0 %R=0.500
~ wdg=2 bus=2603447-9936445v.1.4 conn=wye Kv=0.1100 Kva=10.0 %R=0.500
~ wdg=3 bus=2603447-9936445v.4.2 conn=wye Kv=0.1100 Kva=10.0 %R=0.500
New Transformer.3198439 phases=3 windings=2 Xhl=1.200
~ wdg=1 bus=25987-9936459.1.2.3 conn=delta Kv=13.8 Kva=75.0 %R=0.500
~ wdg=2 bus=3198439-9936460.1.2.3.4 conn=wye Kv=0.2200 Kva=75.0 %R=0.500
New Transformer.2603631 phases=1 windings=3 Xhl=1.200 Xht=1.200 Xlt=0.600
~ wdg=1 bus=25987-9936463.1 conn=wye Kv=7.9674 Kva=15.0 %R=0.500
~ wdg=2 bus=2603631-9936463v.1.4 conn=wye Kv=0.1100 Kva=15.0 %R=0.500
~ wdg=3 bus=2603631-9936463v.4.2 conn=wye Kv=0.1100 Kva=15.0 %R=0.500
New Transformer.2603399 phases=3 windings=2 Xhl=1.200
~ wdg=1 bus=25987-9936465.1.2.3 conn=delta Kv=13.8 Kva=75.0 %R=0.500
~ wdg=2 bus=2603399-9936465v.1.2.3.4 conn=wye Kv=0.2200 Kva=75.0 %R=0.500
New Transformer.2603124 phases=1 windings=3 Xhl=1.200 Xht=1.200 Xlt=0.600
~ wdg=1 bus=25987-9936466.3 conn=wye Kv=7.9674 Kva=15.0 %R=0.500
~ wdg=2 bus=2603124-9936466v.1.4 conn=wye Kv=0.1100 Kva=15.0 %R=0.500
~ wdg=3 bus=2603124-9936466v.4.2 conn=wye Kv=0.1100 Kva=15.0 %R=0.500
New Transformer.2603341 phases=1 windings=3 Xhl=1.200 Xht=1.200 Xlt=0.600
~ wdg=1 bus=25987-9936467.2 conn=wye Kv=7.9674 Kva=15.0 %R=0.500
~ wdg=2 bus=2603341-9936467v.1.4 conn=wye Kv=0.1100 Kva=15.0 %R=0.500
~ wdg=3 bus=2603341-9936467v.4.2 conn=wye Kv=0.1100 Kva=15.0 %R=0.500
New Transformer.2603084 phases=3 windings=2 Xhl=1.200
~ wdg=1 bus=25987-9936468.1.2.3 conn=delta Kv=13.8 Kva=112.5 %R=0.500
~ wdg=2 bus=2603084-9936468v.1.2.3.4 conn=wye Kv=0.2200 Kva=112.5 %R=0.500
New Transformer.2603577 phases=1 windings=3 Xhl=1.200 Xht=1.200 Xlt=0.600
~ wdg=1 bus=25987-9936470.1 conn=wye Kv=7.9674 Kva=15.0 %R=0.500
~ wdg=2 bus=2603577-9936470v.1.4 conn=wye Kv=0.1100 Kva=15.0 %R=0.500
~ wdg=3 bus=2603577-9936470v.4.2 conn=wye Kv=0.1100 Kva=15.0 %R=0.500
New Transformer.2603627 phases=1 windings=3 Xhl=1.200 Xht=1.200 Xlt=0.600
~ wdg=1 bus=25987-9936471.3 conn=wye Kv=7.9674 Kva=15.0 %R=0.500
~ wdg=2 bus=2603627-9936471v.1.4 conn=wye Kv=0.1100 Kva=15.0 %R=0.500
~ wdg=3 bus=2603627-9936471v.4.2 conn=wye Kv=0.1100 Kva=15.0 %R=0.500
New Transformer.2603392 phases=1 windings=3 Xhl=1.200 Xht=1.200 Xlt=0.600
~ wdg=1 bus=25987-9936477.2 conn=wye Kv=7.9674 Kva=5.0 %R=0.500
~ wdg=2 bus=2603392-9936477v.1.4 conn=wye Kv=0.1100 Kva=5.0 %R=0.500
~ wdg=3 bus=2603392-9936477v.4.2 conn=wye Kv=0.1100 Kva=5.0 %R=0.500
New Transformer.2603615 phases=1 windings=3 Xhl=1.200 Xht=1.200 Xlt=0.600
~ wdg=1 bus=25987-9936478.2 conn=wye Kv=7.9674 Kva=15.0 %R=0.500
~ wdg=2 bus=2603615-9936478v.1.4 conn=wye Kv=0.1100 Kva=15.0 %R=0.500
~ wdg=3 bus=2603615-9936478v.4.2 conn=wye Kv=0.1100 Kva=15.0 %R=0.500
New Transformer.2603546 phases=1 windings=3 Xhl=1.200 Xht=1.200 Xlt=0.600
~ wdg=1 bus=25987-9936491.3 conn=wye Kv=7.9674 Kva=25.0 %R=0.500
~ wdg=2 bus=2603546-11777703.1.4 conn=wye Kv=0.1100 Kva=25.0 %R=0.500
~ wdg=3 bus=2603546-11777703.4.2 conn=wye Kv=0.1100 Kva=25.0 %R=0.500
New Transformer.2603342 phases=3 windings=2 Xhl=1.200
~ wdg=1 bus=25987-9936646.1.2.3 conn=delta Kv=13.8 Kva=75.0 %R=0.500
~ wdg=2 bus=2603342-9936647.1.2.3.4 conn=wye Kv=0.2200 Kva=75.0 %R=0.500
New Transformer.2603286 phases=1 windings=3 Xhl=1.200 Xht=1.200 Xlt=0.600
~ wdg=1 bus=25987-9936668.2 conn=wye Kv=7.9674 Kva=10.0 %R=0.500
~ wdg=2 bus=2603286-9936668v.1.4 conn=wye Kv=0.1100 Kva=10.0 %R=0.500
~ wdg=3 bus=2603286-9936668v.4.2 conn=wye Kv=0.1100 Kva=10.0 %R=0.500
New Transformer.2603612 phases=1 windings=3 Xhl=1.200 Xht=1.200 Xlt=0.600
~ wdg=1 bus=25987-9936671.2 conn=wye Kv=7.9674 Kva=10.0 %R=0.500
~ wdg=2 bus=2603612-9936671v.1.4 conn=wye Kv=0.1100 Kva=10.0 %R=0.500
~ wdg=3 bus=2603612-9936671v.4.2 conn=wye Kv=0.1100 Kva=10.0 %R=0.500
New Transformer.2603520 phases=1 windings=3 Xhl=1.200 Xht=1.200 Xlt=0.600
~ wdg=1 bus=25987-9936700.2 conn=wye Kv=7.9674 Kva=10.0 %R=0.500
~ wdg=2 bus=2603520-9936700v.1.4 conn=wye Kv=0.1100 Kva=10.0 %R=0.500
~ wdg=3 bus=2603520-9936700v.4.2 conn=wye Kv=0.1100 Kva=10.0 %R=0.500
New Transformer.2603278 phases=1 windings=3 Xhl=1.200 Xht=1.200 Xlt=0.600
~ wdg=1 bus=25987-9936710.2 conn=wye Kv=7.9674 Kva=10.0 %R=0.500
~ wdg=2 bus=2603278-9936710v.1.4 conn=wye Kv=0.1100 Kva=10.0 %R=0.500
~ wdg=3 bus=2603278-9936710v.4.2 conn=wye Kv=0.1100 Kva=10.0 %R=0.500
New Transformer.2603517 phases=1 windings=3 Xhl=1.200 Xht=1.200 Xlt=0.600
~ wdg=1 bus=25987-9936711.2 conn=wye Kv=7.9674 Kva=10.0 %R=0.500
~ wdg=2 bus=2603517-9936711v.1.4 conn=wye Kv=0.1100 Kva=10.0 %R=0.500
~ wdg=3 bus=2603517-9936711v.4.2 conn=wye Kv=0.1100 Kva=10.0 %R=0.500
New Transformer.2603310 phases=1 windings=3 Xhl=1.200 Xht=1.200 Xlt=0.600
~ wdg=1 bus=25987-9936712.3 conn=wye Kv=7.9674 Kva=10.0 %R=0.500
~ wdg=2 bus=2603310-9936712v.1.4 conn=wye Kv=0.1100 Kva=10.0 %R=0.500
~ wdg=3 bus=2603310-9936712v.4.2 conn=wye Kv=0.1100 Kva=10.0 %R=0.500
New Transformer.2603237 phases=1 windings=3 Xhl=1.200 Xht=1.200 Xlt=0.600
~ wdg=1 bus=25987-9936879.2 conn=wye Kv=7.9674 Kva=10.0 %R=0.500
~ wdg=2 bus=2603237-9936879v.1.4 conn=wye Kv=0.1100 Kva=10.0 %R=0.500
~ wdg=3 bus=2603237-9936879v.4.2 conn=wye Kv=0.1100 Kva=10.0 %R=0.500
New Transformer.2603581 phases=3 windings=2 Xhl=1.200
~ wdg=1 bus=25987-9937064.1.2.3 conn=delta Kv=13.8 Kva=45.0 %R=0.500
~ wdg=2 bus=2603581-9937065.1.2.3.4 conn=wye Kv=0.2200 Kva=45.0 %R=0.500
New Transformer.2603162 phases=3 windings=2 Xhl=1.200
~ wdg=1 bus=25987-9937068.1.2.3 conn=delta Kv=13.8 Kva=45.0 %R=0.500
~ wdg=2 bus=2603162-9937069.1.2.3.4 conn=wye Kv=0.2200 Kva=45.0 %R=0.500
New Transformer.2603587 phases=3 windings=2 Xhl=1.200
~ wdg=1 bus=25987-9937070.1.2.3 conn=delta Kv=13.8 Kva=75.0 %R=0.500
~ wdg=2 bus=2603587-9937071.1.2.3.4 conn=wye Kv=0.2200 Kva=75.0 %R=0.500
New Transformer.2603343 phases=3 windings=2 Xhl=1.200
~ wdg=1 bus=25987-9937232.1.2.3 conn=delta Kv=13.8 Kva=45.0 %R=0.500
~ wdg=2 bus=2603343-9937233.1.2.3.4 conn=wye Kv=0.2200 Kva=45.0 %R=0.500
New Transformer.2603271 phases=1 windings=3 Xhl=1.200 Xht=1.200 Xlt=0.600
~ wdg=1 bus=25987-9937248.2 conn=wye Kv=7.9674 Kva=10.0 %R=0.500
~ wdg=2 bus=2603271-9937248v.1.4 conn=wye Kv=0.1100 Kva=10.0 %R=0.500
~ wdg=3 bus=2603271-9937248v.4.2 conn=wye Kv=0.1100 Kva=10.0 %R=0.500
New Transformer.2603297 phases=1 windings=3 Xhl=1.200 Xht=1.200 Xlt=0.600
~ wdg=1 bus=25987-9937262.1 conn=wye Kv=7.9674 Kva=10.0 %R=0.500
~ wdg=2 bus=2603297-9937262v.1.4 conn=wye Kv=0.1100 Kva=10.0 %R=0.500
~ wdg=3 bus=2603297-9937262v.4.2 conn=wye Kv=0.1100 Kva=10.0 %R=0.500
New Transformer.2603426 phases=1 windings=3 Xhl=1.200 Xht=1.200 Xlt=0.600
~ wdg=1 bus=25987-9937296.1 conn=wye Kv=7.9674 Kva=5.0 %R=0.500
~ wdg=2 bus=2603426-9937296v.1.4 conn=wye Kv=0.1100 Kva=5.0 %R=0.500
~ wdg=3 bus=2603426-9937296v.4.2 conn=wye Kv=0.1100 Kva=5.0 %R=0.500
New Transformer.2603543 phases=1 windings=3 Xhl=1.200 Xht=1.200 Xlt=0.600
~ wdg=1 bus=25987-9937475.2 conn=wye Kv=7.9674 Kva=10.0 %R=0.500
~ wdg=2 bus=2603543-9937476.1.4 conn=wye Kv=0.1100 Kva=10.0 %R=0.500
~ wdg=3 bus=2603543-9937476.4.2 conn=wye Kv=0.1100 Kva=10.0 %R=0.500
New Transformer.2603558 phases=3 windings=2 Xhl=1.200
~ wdg=1 bus=25987-9937699.1.2.3 conn=delta Kv=13.8 Kva=30.0 %R=0.500
~ wdg=2 bus=2603558-9937700.1.2.3.4 conn=wye Kv=0.2200 Kva=30.0 %R=0.500
New Transformer.2603219 phases=3 windings=2 Xhl=1.200
~ wdg=1 bus=25987-9937735.1.2.3 conn=delta Kv=13.8 Kva=75.0 %R=0.500
~ wdg=2 bus=2603219-9937735v.1.2.3.4 conn=wye Kv=0.2200 Kva=75.0 %R=0.500
New Transformer.2603127 phases=3 windings=2 Xhl=1.200
~ wdg=1 bus=25987-9937736.1.2.3 conn=delta Kv=13.8 Kva=45.0 %R=0.500
~ wdg=2 bus=2603127-9937737.1.2.3.4 conn=wye Kv=0.2200 Kva=45.0 %R=0.500
New Transformer.2603295 phases=1 windings=3 Xhl=1.200 Xht=1.200 Xlt=0.600
~ wdg=1 bus=25987-9937740.2 conn=wye Kv=7.9674 Kva=10.0 %R=0.500
~ wdg=2 bus=2603295-9937740v.1.4 conn=wye Kv=0.1100 Kva=10.0 %R=0.500
~ wdg=3 bus=2603295-9937740v.4.2 conn=wye Kv=0.1100 Kva=10.0 %R=0.500
New Transformer.2603626 phases=1 windings=3 Xhl=1.200 Xht=1.200 Xlt=0.600
~ wdg=1 bus=25987-9937742.2 conn=wye Kv=7.9674 Kva=10.0 %R=0.500
~ wdg=2 bus=2603626-9937742v.1.4 conn=wye Kv=0.1100 Kva=10.0 %R=0.500
~ wdg=3 bus=2603626-9937742v.4.2 conn=wye Kv=0.1100 Kva=10.0 %R=0.500
New Transformer.2603365 phases=1 windings=3 Xhl=1.200 Xht=1.200 Xlt=0.600
~ wdg=1 bus=25987-9937749.3 conn=wye Kv=7.9674 Kva=15.0 %R=0.500
~ wdg=2 bus=2603365-9937749v.1.4 conn=wye Kv=0.1100 Kva=15.0 %R=0.500
~ wdg=3 bus=2603365-9937749v.4.2 conn=wye Kv=0.1100 Kva=15.0 %R=0.500
New Transformer.2603288 phases=1 windings=3 Xhl=1.200 Xht=1.200 Xlt=0.600
~ wdg=1 bus=25987-9937750.1 conn=wye Kv=7.9674 Kva=15.0 %R=0.500
~ wdg=2 bus=2603288-9937750v.1.4 conn=wye Kv=0.1100 Kva=15.0 %R=0.500
~ wdg=3 bus=2603288-9937750v.4.2 conn=wye Kv=0.1100 Kva=15.0 %R=0.500
New Transformer.2603175 phases=1 windings=3 Xhl=1.200 Xht=1.200 Xlt=0.600
~ wdg=1 bus=25987-9937751.3 conn=wye Kv=7.9674 Kva=25.0 %R=0.500
~ wdg=2 bus=2603175-9937751v.1.4 conn=wye Kv=0.1100 Kva=25.0 %R=0.500
~ wdg=3 bus=2603175-9937751v.4.2 conn=wye Kv=0.1100 Kva=25.0 %R=0.500
New Transformer.2603422 phases=1 windings=3 Xhl=1.200 Xht=1.200 Xlt=0.600
~ wdg=1 bus=25987-9937756.2 conn=wye Kv=7.9674 Kva=5.0 %R=0.500
~ wdg=2 bus=2603422-9937756v.1.4 conn=wye Kv=0.1100 Kva=5.0 %R=0.500
~ wdg=3 bus=2603422-9937756v.4.2 conn=wye Kv=0.1100 Kva=5.0 %R=0.500
New Transformer.2603287 phases=1 windings=3 Xhl=1.200 Xht=1.200 Xlt=0.600
~ wdg=1 bus=25987-9937757.1 conn=wye Kv=7.9674 Kva=15.0 %R=0.500
~ wdg=2 bus=2603287-9937757v.1.4 conn=wye Kv=0.1100 Kva=15.0 %R=0.500
~ wdg=3 bus=2603287-9937757v.4.2 conn=wye Kv=0.1100 Kva=15.0 %R=0.500
New Transformer.2603498 phases=1 windings=3 Xhl=1.200 Xht=1.200 Xlt=0.600
~ wdg=1 bus=25987-9937758.3 conn=wye Kv=7.9674 Kva=15.0 %R=0.500
~ wdg=2 bus=2603498-9937758v.1.4 conn=wye Kv=0.1100 Kva=15.0 %R=0.500
~ wdg=3 bus=2603498-9937758v.4.2 conn=wye Kv=0.1100 Kva=15.0 %R=0.500
New Transformer.2603701 phases=1 windings=3 Xhl=1.200 Xht=1.200 Xlt=0.600
~ wdg=1 bus=25987-9937768.2 conn=wye Kv=7.9674 Kva=5.0 %R=0.500
~ wdg=2 bus=2603701-9937768v.1.4 conn=wye Kv=0.1100 Kva=5.0 %R=0.500
~ wdg=3 bus=2603701-9937768v.4.2 conn=wye Kv=0.1100 Kva=5.0 %R=0.500
New Transformer.2603132 phases=1 windings=3 Xhl=1.200 Xht=1.200 Xlt=0.600
~ wdg=1 bus=25987-9937769.2 conn=wye Kv=7.9674 Kva=5.0 %R=0.500
~ wdg=2 bus=2603132-9937769v.1.4 conn=wye Kv=0.1100 Kva=5.0 %R=0.500
~ wdg=3 bus=2603132-9937769v.4.2 conn=wye Kv=0.1100 Kva=5.0 %R=0.500
New Transformer.2602988 phases=3 windings=2 Xhl=1.200
~ wdg=1 bus=25987-9937935.1.2.3 conn=delta Kv=13.8 Kva=75.0 %R=0.500
~ wdg=2 bus=2602988-9937936.1.2.3.4 conn=wye Kv=0.2200 Kva=75.0 %R=0.500
New Transformer.2603165 phases=3 windings=2 Xhl=1.200
~ wdg=1 bus=25987-9937939.1.2.3 conn=delta Kv=13.8 Kva=45.0 %R=0.500
~ wdg=2 bus=2603165-9937940.1.2.3.4 conn=wye Kv=0.2200 Kva=45.0 %R=0.500
New Transformer.2603698 phases=1 windings=3 Xhl=1.200 Xht=1.200 Xlt=0.600
~ wdg=1 bus=25987-9937973.2 conn=wye Kv=7.9674 Kva=10.0 %R=0.500
~ wdg=2 bus=2603698-9937973v.1.4 conn=wye Kv=0.1100 Kva=10.0 %R=0.500
~ wdg=3 bus=2603698-9937973v.4.2 conn=wye Kv=0.1100 Kva=10.0 %R=0.500
New Transformer.2602996 phases=1 windings=3 Xhl=1.200 Xht=1.200 Xlt=0.600
~ wdg=1 bus=25987-9938015.3 conn=wye Kv=7.9674 Kva=10.0 %R=0.500
~ wdg=2 bus=2602996-9938015v.1.4 conn=wye Kv=0.1100 Kva=10.0 %R=0.500
~ wdg=3 bus=2602996-9938015v.4.2 conn=wye Kv=0.1100 Kva=10.0 %R=0.500
New Transformer.2603221 phases=1 windings=3 Xhl=1.200 Xht=1.200 Xlt=0.600
~ wdg=1 bus=25987-9938279.2 conn=wye Kv=7.9674 Kva=10.0 %R=0.500
~ wdg=2 bus=2603221-9938279v.1.4 conn=wye Kv=0.1100 Kva=10.0 %R=0.500
~ wdg=3 bus=2603221-9938279v.4.2 conn=wye Kv=0.1100 Kva=10.0 %R=0.500
New Transformer.2603257 phases=1 windings=3 Xhl=1.200 Xht=1.200 Xlt=0.600
~ wdg=1 bus=25987-9938289.3 conn=wye Kv=7.9674 Kva=10.0 %R=0.500
~ wdg=2 bus=2603257-9938289v.1.4 conn=wye Kv=0.1100 Kva=10.0 %R=0.500
~ wdg=3 bus=2603257-9938289v.4.2 conn=wye Kv=0.1100 Kva=10.0 %R=0.500
New Transformer.2603348 phases=1 windings=3 Xhl=1.200 Xht=1.200 Xlt=0.600
~ wdg=1 bus=25987-9938298.2 conn=wye Kv=7.9674 Kva=10.0 %R=0.500
~ wdg=2 bus=2603348-9938298v.1.4 conn=wye Kv=0.1100 Kva=10.0 %R=0.500
~ wdg=3 bus=2603348-9938298v.4.2 conn=wye Kv=0.1100 Kva=10.0 %R=0.500
New Transformer.2603516 phases=3 windings=2 Xhl=1.200
~ wdg=1 bus=25987-9938301.1.2.3 conn=delta Kv=13.8 Kva=15.0 %R=0.500
~ wdg=2 bus=2603516-9938301v.1.2.3.4 conn=wye Kv=0.2200 Kva=15.0 %R=0.500
New Transformer.2603453 phases=1 windings=3 Xhl=1.200 Xht=1.200 Xlt=0.600
~ wdg=1 bus=25987-9938305.3 conn=wye Kv=7.9674 Kva=10.0 %R=0.500
~ wdg=2 bus=2603453-9938305v.1.4 conn=wye Kv=0.1100 Kva=10.0 %R=0.500
~ wdg=3 bus=2603453-9938305v.4.2 conn=wye Kv=0.1100 Kva=10.0 %R=0.500
New Transformer.2603308 phases=3 windings=2 Xhl=1.200
~ wdg=1 bus=25987-9938314.1.2.3 conn=delta Kv=13.8 Kva=45.0 %R=0.500
~ wdg=2 bus=2603308-9938315.1.2.3.4 conn=wye Kv=0.2200 Kva=45.0 %R=0.500
New Transformer.2603024 phases=3 windings=2 Xhl=1.200
~ wdg=1 bus=25987-9938455.1.2.3 conn=delta Kv=13.8 Kva=112.5 %R=0.500
~ wdg=2 bus=2603024-9938456.1.2.3.4 conn=wye Kv=0.2200 Kva=112.5 %R=0.500
New Transformer.2603519 phases=1 windings=3 Xhl=1.200 Xht=1.200 Xlt=0.600
~ wdg=1 bus=25987-9938515.2 conn=wye Kv=7.9674 Kva=10.0 %R=0.500
~ wdg=2 bus=2603519-9938515v.1.4 conn=wye Kv=0.1100 Kva=10.0 %R=0.500
~ wdg=3 bus=2603519-9938515v.4.2 conn=wye Kv=0.1100 Kva=10.0 %R=0.500
New Transformer.2603183 phases=1 windings=3 Xhl=1.200 Xht=1.200 Xlt=0.600
~ wdg=1 bus=25987-9938726.3 conn=wye Kv=7.9674 Kva=15.0 %R=0.500
~ wdg=2 bus=2603183-9938726v.1.4 conn=wye Kv=0.1100 Kva=15.0 %R=0.500
~ wdg=3 bus=2603183-9938726v.4.2 conn=wye Kv=0.1100 Kva=15.0 %R=0.500
New Transformer.2603657 phases=3 windings=2 Xhl=1.200
~ wdg=1 bus=25987-9938780.1.2.3 conn=delta Kv=13.8 Kva=150.0 %R=0.500
~ wdg=2 bus=2603657-9938781.1.2.3.4 conn=wye Kv=0.2200 Kva=150.0 %R=0.500
New Transformer.2603617 phases=3 windings=2 Xhl=1.200
~ wdg=1 bus=25987-9938803.1.2.3 conn=delta Kv=13.8 Kva=75.0 %R=0.500
~ wdg=2 bus=2603617-9938804.1.2.3.4 conn=wye Kv=0.2200 Kva=75.0 %R=0.500
New Transformer.2602989 phases=1 windings=3 Xhl=1.200 Xht=1.200 Xlt=0.600
~ wdg=1 bus=25987-9938805.2 conn=wye Kv=7.9674 Kva=10.0 %R=0.500
~ wdg=2 bus=2602989-9938805v.1.4 conn=wye Kv=0.1100 Kva=10.0 %R=0.500
~ wdg=3 bus=2602989-9938805v.4.2 conn=wye Kv=0.1100 Kva=10.0 %R=0.500
New Transformer.2603264 phases=1 windings=3 Xhl=1.200 Xht=1.200 Xlt=0.600
~ wdg=1 bus=25987-9938806.2 conn=wye Kv=7.9674 Kva=10.0 %R=0.500
~ wdg=2 bus=2603264-9938806v.1.4 conn=wye Kv=0.1100 Kva=10.0 %R=0.500
~ wdg=3 bus=2603264-9938806v.4.2 conn=wye Kv=0.1100 Kva=10.0 %R=0.500
New Transformer.2603500 phases=1 windings=3 Xhl=1.200 Xht=1.200 Xlt=0.600
~ wdg=1 bus=25987-9938808.2 conn=wye Kv=7.9674 Kva=10.0 %R=0.500
~ wdg=2 bus=2603500-9938808v.1.4 conn=wye Kv=0.1100 Kva=10.0 %R=0.500
~ wdg=3 bus=2603500-9938808v.4.2 conn=wye Kv=0.1100 Kva=10.0 %R=0.500
New Transformer.2603256 phases=1 windings=3 Xhl=1.200 Xht=1.200 Xlt=0.600
~ wdg=1 bus=25987-9938819.3 conn=wye Kv=7.9674 Kva=5.0 %R=0.500
~ wdg=2 bus=2603256-9938819v.1.4 conn=wye Kv=0.1100 Kva=5.0 %R=0.500
~ wdg=3 bus=2603256-9938819v.4.2 conn=wye Kv=0.1100 Kva=5.0 %R=0.500
New Transformer.2602993 phases=3 windings=2 Xhl=1.200
~ wdg=1 bus=25987-9939022.1.2.3 conn=delta Kv=13.8 Kva=112.5 %R=0.500
~ wdg=2 bus=2602993-9939023.1.2.3.4 conn=wye Kv=0.2200 Kva=112.5 %R=0.500
New Transformer.2603215 phases=1 windings=3 Xhl=1.200 Xht=1.200 Xlt=0.600
~ wdg=1 bus=25987-9939096.2 conn=wye Kv=7.9674 Kva=10.0 %R=0.500
~ wdg=2 bus=2603215-9939096v.1.4 conn=wye Kv=0.1100 Kva=10.0 %R=0.500
~ wdg=3 bus=2603215-9939096v.4.2 conn=wye Kv=0.1100 Kva=10.0 %R=0.500
New Transformer.2603518 phases=1 windings=3 Xhl=1.200 Xht=1.200 Xlt=0.600
~ wdg=1 bus=25987-9939100.2 conn=wye Kv=7.9674 Kva=10.0 %R=0.500
~ wdg=2 bus=2603518-9939100v.1.4 conn=wye Kv=0.1100 Kva=10.0 %R=0.500
~ wdg=3 bus=2603518-9939100v.4.2 conn=wye Kv=0.1100 Kva=10.0 %R=0.500
New Transformer.2603035 phases=1 windings=3 Xhl=1.200 Xht=1.200 Xlt=0.600
~ wdg=1 bus=25987-9939105.2 conn=wye Kv=7.9674 Kva=10.0 %R=0.500
~ wdg=2 bus=2603035-9939105v.1.4 conn=wye Kv=0.1100 Kva=10.0 %R=0.500
~ wdg=3 bus=2603035-9939105v.4.2 conn=wye Kv=0.1100 Kva=10.0 %R=0.500
New Transformer.2603034 phases=1 windings=3 Xhl=1.200 Xht=1.200 Xlt=0.600
~ wdg=1 bus=25987-9939109.2 conn=wye Kv=7.9674 Kva=10.0 %R=0.500
~ wdg=2 bus=2603034-9939109v.1.4 conn=wye Kv=0.1100 Kva=10.0 %R=0.500
~ wdg=3 bus=2603034-9939109v.4.2 conn=wye Kv=0.1100 Kva=10.0 %R=0.500
New Transformer.2603674 phases=1 windings=3 Xhl=1.200 Xht=1.200 Xlt=0.600
~ wdg=1 bus=25987-9939121.1 conn=wye Kv=7.9674 Kva=10.0 %R=0.500
~ wdg=2 bus=2603674-9939121v.1.4 conn=wye Kv=0.1100 Kva=10.0 %R=0.500
~ wdg=3 bus=2603674-9939121v.4.2 conn=wye Kv=0.1100 Kva=10.0 %R=0.500
New Transformer.2603087 phases=1 windings=3 Xhl=1.200 Xht=1.200 Xlt=0.600
~ wdg=1 bus=25987-9939255.1 conn=wye Kv=7.9674 Kva=10.0 %R=0.500
~ wdg=2 bus=2603087-9939255v.1.4 conn=wye Kv=0.1100 Kva=10.0 %R=0.500
~ wdg=3 bus=2603087-9939255v.4.2 conn=wye Kv=0.1100 Kva=10.0 %R=0.500
New Transformer.2603550 phases=3 windings=2 Xhl=1.200
~ wdg=1 bus=25987-9939351.1.2.3 conn=delta Kv=13.8 Kva=15.0 %R=0.500
~ wdg=2 bus=2603550-11781873.1.2.3.4 conn=wye Kv=0.2200 Kva=15.0 %R=0.500
New Transformer.2603248 phases=3 windings=2 Xhl=1.200
~ wdg=1 bus=25987-9939359.1.2.3 conn=delta Kv=13.8 Kva=112.5 %R=0.500
~ wdg=2 bus=2603248-9939360.1.2.3.4 conn=wye Kv=0.2200 Kva=112.5 %R=0.500
New Transformer.2603667 phases=3 windings=2 Xhl=1.200
~ wdg=1 bus=25987-9939370.1.2.3 conn=delta Kv=13.8 Kva=112.5 %R=0.500
~ wdg=2 bus=2603667-9939371.1.2.3.4 conn=wye Kv=0.2200 Kva=112.5 %R=0.500
New Transformer.2603649 phases=1 windings=3 Xhl=1.200 Xht=1.200 Xlt=0.600
~ wdg=1 bus=25987-9939488.2 conn=wye Kv=7.9674 Kva=10.0 %R=0.500
~ wdg=2 bus=2603649-9939488v.1.4 conn=wye Kv=0.1100 Kva=10.0 %R=0.500
~ wdg=3 bus=2603649-9939488v.4.2 conn=wye Kv=0.1100 Kva=10.0 %R=0.500
New Transformer.2603559 phases=1 windings=3 Xhl=1.200 Xht=1.200 Xlt=0.600
~ wdg=1 bus=25987-9939529.2 conn=wye Kv=7.9674 Kva=10.0 %R=0.500
~ wdg=2 bus=2603559-9939529v.1.4 conn=wye Kv=0.1100 Kva=10.0 %R=0.500
~ wdg=3 bus=2603559-9939529v.4.2 conn=wye Kv=0.1100 Kva=10.0 %R=0.500
New Transformer.2603675 phases=1 windings=3 Xhl=1.200 Xht=1.200 Xlt=0.600
~ wdg=1 bus=25987-9939534.3 conn=wye Kv=7.9674 Kva=15.0 %R=0.500
~ wdg=2 bus=2603675-9939534v.1.4 conn=wye Kv=0.1100 Kva=15.0 %R=0.500
~ wdg=3 bus=2603675-9939534v.4.2 conn=wye Kv=0.1100 Kva=15.0 %R=0.500
New Transformer.2603309 phases=1 windings=3 Xhl=1.200 Xht=1.200 Xlt=0.600
~ wdg=1 bus=25987-9939535.3 conn=wye Kv=7.9674 Kva=15.0 %R=0.500
~ wdg=2 bus=2603309-9939535v.1.4 conn=wye Kv=0.1100 Kva=15.0 %R=0.500
~ wdg=3 bus=2603309-9939535v.4.2 conn=wye Kv=0.1100 Kva=15.0 %R=0.500
New Transformer.2603021 phases=3 windings=2 Xhl=1.200
~ wdg=1 bus=25987-9939590.1.2.3 conn=delta Kv=13.8 Kva=15.0 %R=0.500
~ wdg=2 bus=2603021-9939590v.1.2.3.4 conn=wye Kv=0.2200 Kva=15.0 %R=0.500
New Transformer.2603503 phases=1 windings=3 Xhl=1.200 Xht=1.200 Xlt=0.600
~ wdg=1 bus=25987-9939598.1 conn=wye Kv=7.9674 Kva=10.0 %R=0.500
~ wdg=2 bus=2603503-9939598v.1.4 conn=wye Kv=0.1100 Kva=10.0 %R=0.500
~ wdg=3 bus=2603503-9939598v.4.2 conn=wye Kv=0.1100 Kva=10.0 %R=0.500
New Transformer.2603052 phases=1 windings=3 Xhl=1.200 Xht=1.200 Xlt=0.600
~ wdg=1 bus=25987-9939635.2 conn=wye Kv=7.9674 Kva=10.0 %R=0.500
~ wdg=2 bus=2603052-9939635v.1.4 conn=wye Kv=0.1100 Kva=10.0 %R=0.500
~ wdg=3 bus=2603052-9939635v.4.2 conn=wye Kv=0.1100 Kva=10.0 %R=0.500
New Transformer.2603136 phases=3 windings=2 Xhl=1.200
~ wdg=1 bus=25987-9939720.1.2.3 conn=delta Kv=13.8 Kva=30.0 %R=0.500
~ wdg=2 bus=2603136-9939721.1.2.3.4 conn=wye Kv=0.2200 Kva=30.0 %R=0.500
New Transformer.2603293 phases=3 windings=2 Xhl=1.200
~ wdg=1 bus=25987-9939722.1.2.3 conn=delta Kv=13.8 Kva=75.0 %R=0.500
~ wdg=2 bus=2603293-9939723.1.2.3.4 conn=wye Kv=0.2200 Kva=75.0 %R=0.500
New Transformer.2603606 phases=1 windings=3 Xhl=1.200 Xht=1.200 Xlt=0.600
~ wdg=1 bus=25987-9939744.3 conn=wye Kv=7.9674 Kva=5.0 %R=0.500
~ wdg=2 bus=2603606-9939744v.1.4 conn=wye Kv=0.1100 Kva=5.0 %R=0.500
~ wdg=3 bus=2603606-9939744v.4.2 conn=wye Kv=0.1100 Kva=5.0 %R=0.500
New Transformer.2603542 phases=1 windings=3 Xhl=1.200 Xht=1.200 Xlt=0.600
~ wdg=1 bus=25987-9939767.2 conn=wye Kv=7.9674 Kva=5.0 %R=0.500
~ wdg=2 bus=2603542-9939768.1.4 conn=wye Kv=0.1100 Kva=5.0 %R=0.500
~ wdg=3 bus=2603542-9939768.4.2 conn=wye Kv=0.1100 Kva=5.0 %R=0.500
New Transformer.2603259 phases=3 windings=2 Xhl=1.200
~ wdg=1 bus=25987-9939812.1.2.3 conn=delta Kv=13.8 Kva=75.0 %R=0.500
~ wdg=2 bus=2603259-9939812v.1.2.3.4 conn=wye Kv=0.2200 Kva=75.0 %R=0.500
New Transformer.2603525 phases=3 windings=2 Xhl=1.200
~ wdg=1 bus=25987-9939835.1.2.3 conn=delta Kv=13.8 Kva=45.0 %R=0.500
~ wdg=2 bus=2603525-9939836.1.2.3.4 conn=wye Kv=0.2200 Kva=45.0 %R=0.500
New Transformer.2602990 phases=1 windings=3 Xhl=1.200 Xht=1.200 Xlt=0.600
~ wdg=1 bus=25987-9939837.2 conn=wye Kv=7.9674 Kva=10.0 %R=0.500
~ wdg=2 bus=2602990-9939837v.1.4 conn=wye Kv=0.1100 Kva=10.0 %R=0.500
~ wdg=3 bus=2602990-9939837v.4.2 conn=wye Kv=0.1100 Kva=10.0 %R=0.500
New Transformer.2603359 phases=3 windings=2 Xhl=1.200
~ wdg=1 bus=25987-9939949.1.2.3 conn=delta Kv=13.8 Kva=75.0 %R=0.500
~ wdg=2 bus=2603359-9939949v.1.2.3.4 conn=wye Kv=0.2200 Kva=75.0 %R=0.500
New Transformer.2603677 phases=1 windings=3 Xhl=1.200 Xht=1.200 Xlt=0.600
~ wdg=1 bus=25987-9939982.3 conn=wye Kv=7.9674 Kva=25.0 %R=0.500
~ wdg=2 bus=2603677-9939982v.1.4 conn=wye Kv=0.1100 Kva=25.0 %R=0.500
~ wdg=3 bus=2603677-9939982v.4.2 conn=wye Kv=0.1100 Kva=25.0 %R=0.500
New Transformer.2603419 phases=3 windings=2 Xhl=1.200
~ wdg=1 bus=25987-9940022.1.2.3 conn=delta Kv=13.8 Kva=30.0 %R=0.500
~ wdg=2 bus=2603419-9940023.1.2.3.4 conn=wye Kv=0.2200 Kva=30.0 %R=0.500
New Transformer.2603234 phases=1 windings=3 Xhl=1.200 Xht=1.200 Xlt=0.600
~ wdg=1 bus=25987-9940057.2 conn=wye Kv=7.9674 Kva=10.0 %R=0.500
~ wdg=2 bus=2603234-9940057v.1.4 conn=wye Kv=0.1100 Kva=10.0 %R=0.500
~ wdg=3 bus=2603234-9940057v.4.2 conn=wye Kv=0.1100 Kva=10.0 %R=0.500
New Transformer.2603033 phases=1 windings=3 Xhl=1.200 Xht=1.200 Xlt=0.600
~ wdg=1 bus=25987-9940058.2 conn=wye Kv=7.9674 Kva=10.0 %R=0.500
~ wdg=2 bus=2603033-9940058v.1.4 conn=wye Kv=0.1100 Kva=10.0 %R=0.500
~ wdg=3 bus=2603033-9940058v.4.2 conn=wye Kv=0.1100 Kva=10.0 %R=0.500
New Transformer.2603031 phases=1 windings=3 Xhl=1.200 Xht=1.200 Xlt=0.600
~ wdg=1 bus=25987-9940060.2 conn=wye Kv=7.9674 Kva=10.0 %R=0.500
~ wdg=2 bus=2603031-9940060v.1.4 conn=wye Kv=0.1100 Kva=10.0 %R=0.500
~ wdg=3 bus=2603031-9940060v.4.2 conn=wye Kv=0.1100 Kva=10.0 %R=0.500
New Transformer.2603669 phases=1 windings=3 Xhl=1.200 Xht=1.200 Xlt=0.600
~ wdg=1 bus=25987-9940068.2 conn=wye Kv=7.9674 Kva=10.0 %R=0.500
~ wdg=2 bus=2603669-9940069.1.4 conn=wye Kv=0.1100 Kva=10.0 %R=0.500
~ wdg=3 bus=2603669-9940069.4.2 conn=wye Kv=0.1100 Kva=10.0 %R=0.500
New Transformer.2603670 phases=1 windings=3 Xhl=1.200 Xht=1.200 Xlt=0.600
~ wdg=1 bus=25987-9940079.3 conn=wye Kv=7.9674 Kva=10.0 %R=0.500
~ wdg=2 bus=2603670-9940079v.1.4 conn=wye Kv=0.1100 Kva=10.0 %R=0.500
~ wdg=3 bus=2603670-9940079v.4.2 conn=wye Kv=0.1100 Kva=10.0 %R=0.500
New Transformer.2603676 phases=1 windings=3 Xhl=1.200 Xht=1.200 Xlt=0.600
~ wdg=1 bus=25987-9940080.1 conn=wye Kv=7.9674 Kva=15.0 %R=0.500
~ wdg=2 bus=2603676-9940080v.1.4 conn=wye Kv=0.1100 Kva=15.0 %R=0.500
~ wdg=3 bus=2603676-9940080v.4.2 conn=wye Kv=0.1100 Kva=15.0 %R=0.500
New Transformer.2603450 phases=1 windings=3 Xhl=1.200 Xht=1.200 Xlt=0.600
~ wdg=1 bus=25987-9940081.3 conn=wye Kv=7.9674 Kva=5.0 %R=0.500
~ wdg=2 bus=2603450-9940081v.1.4 conn=wye Kv=0.1100 Kva=5.0 %R=0.500
~ wdg=3 bus=2603450-9940081v.4.2 conn=wye Kv=0.1100 Kva=5.0 %R=0.500
New Transformer.2603075 phases=1 windings=3 Xhl=1.200 Xht=1.200 Xlt=0.600
~ wdg=1 bus=25987-9940243.2 conn=wye Kv=7.9674 Kva=15.0 %R=0.500
~ wdg=2 bus=2603075-9940243v.1.4 conn=wye Kv=0.1100 Kva=15.0 %R=0.500
~ wdg=3 bus=2603075-9940243v.4.2 conn=wye Kv=0.1100 Kva=15.0 %R=0.500
New Transformer.2603457 phases=1 windings=3 Xhl=1.200 Xht=1.200 Xlt=0.600
~ wdg=1 bus=25987-9940275.1 conn=wye Kv=7.9674 Kva=15.0 %R=0.500
~ wdg=2 bus=2603457-9940275v.1.4 conn=wye Kv=0.1100 Kva=15.0 %R=0.500
~ wdg=3 bus=2603457-9940275v.4.2 conn=wye Kv=0.1100 Kva=15.0 %R=0.500
New Transformer.2603492 phases=1 windings=3 Xhl=1.200 Xht=1.200 Xlt=0.600
~ wdg=1 bus=25987-9940290.3 conn=wye Kv=7.9674 Kva=5.0 %R=0.500
~ wdg=2 bus=2603492-9940290v.1.4 conn=wye Kv=0.1100 Kva=5.0 %R=0.500
~ wdg=3 bus=2603492-9940290v.4.2 conn=wye Kv=0.1100 Kva=5.0 %R=0.500
New Transformer.2603091 phases=3 windings=2 Xhl=1.200
~ wdg=1 bus=25987-9940424.1.2.3 conn=delta Kv=13.8 Kva=45.0 %R=0.500
~ wdg=2 bus=2603091-9940425.1.2.3.4 conn=wye Kv=0.2200 Kva=45.0 %R=0.500
New Transformer.2603180 phases=1 windings=3 Xhl=1.200 Xht=1.200 Xlt=0.600
~ wdg=1 bus=25987-9940453.2 conn=wye Kv=7.9674 Kva=5.0 %R=0.500
~ wdg=2 bus=2603180-9940453v.1.4 conn=wye Kv=0.1100 Kva=5.0 %R=0.500
~ wdg=3 bus=2603180-9940453v.4.2 conn=wye Kv=0.1100 Kva=5.0 %R=0.500
New Transformer.2603560 phases=1 windings=3 Xhl=1.200 Xht=1.200 Xlt=0.600
~ wdg=1 bus=25987-9940459.1 conn=wye Kv=7.9674 Kva=10.0 %R=0.500
~ wdg=2 bus=2603560-9940459v.1.4 conn=wye Kv=0.1100 Kva=10.0 %R=0.500
~ wdg=3 bus=2603560-9940459v.4.2 conn=wye Kv=0.1100 Kva=10.0 %R=0.500
New Transformer.2603530 phases=3 windings=2 Xhl=1.200
~ wdg=1 bus=25987-9940531.1.2.3 conn=delta Kv=13.8 Kva=45.0 %R=0.500
~ wdg=2 bus=2603530-9940532.1.2.3.4 conn=wye Kv=0.2200 Kva=45.0 %R=0.500
New Transformer.2603089 phases=3 windings=2 Xhl=1.200
~ wdg=1 bus=25987-9940533.1.2.3 conn=delta Kv=13.8 Kva=45.0 %R=0.500
~ wdg=2 bus=2603089-9940534.1.2.3.4 conn=wye Kv=0.2200 Kva=45.0 %R=0.500
New Transformer.2603364 phases=3 windings=2 Xhl=1.200
~ wdg=1 bus=25987-9940536.1.2.3 conn=delta Kv=13.8 Kva=75.0 %R=0.500
~ wdg=2 bus=2603364-9940537.1.2.3.4 conn=wye Kv=0.2200 Kva=75.0 %R=0.500
New Transformer.2603050 phases=3 windings=2 Xhl=1.200
~ wdg=1 bus=25987-9940562.1.2.3 conn=delta Kv=13.8 Kva=112.5 %R=0.500
~ wdg=2 bus=2603050-9940563.1.2.3.4 conn=wye Kv=0.2200 Kva=112.5 %R=0.500
New Transformer.2603213 phases=3 windings=2 Xhl=1.200
~ wdg=1 bus=25987-9940564.1.2.3 conn=delta Kv=13.8 Kva=45.0 %R=0.500
~ wdg=2 bus=2603213-9940565.1.2.3.4 conn=wye Kv=0.2200 Kva=45.0 %R=0.500
New Transformer.2603244 phases=1 windings=3 Xhl=1.200 Xht=1.200 Xlt=0.600
~ wdg=1 bus=25987-9940566.2 conn=wye Kv=7.9674 Kva=10.0 %R=0.500
~ wdg=2 bus=2603244-9940566v.1.4 conn=wye Kv=0.1100 Kva=10.0 %R=0.500
~ wdg=3 bus=2603244-9940566v.4.2 conn=wye Kv=0.1100 Kva=10.0 %R=0.500
New Transformer.2603346 phases=3 windings=2 Xhl=1.200
~ wdg=1 bus=25987-9940733.1.2.3 conn=delta Kv=13.8 Kva=75.0 %R=0.500
~ wdg=2 bus=2603346-9940734.1.2.3.4 conn=wye Kv=0.2200 Kva=75.0 %R=0.500
New Transformer.2603363 phases=1 windings=3 Xhl=1.200 Xht=1.200 Xlt=0.600
~ wdg=1 bus=25987-9940787.3 conn=wye Kv=7.9674 Kva=15.0 %R=0.500
~ wdg=2 bus=2603363-9940787v.1.4 conn=wye Kv=0.1100 Kva=15.0 %R=0.500
~ wdg=3 bus=2603363-9940787v.4.2 conn=wye Kv=0.1100 Kva=15.0 %R=0.500
New Transformer.2603489 phases=1 windings=3 Xhl=1.200 Xht=1.200 Xlt=0.600
~ wdg=1 bus=25987-9940849.2 conn=wye Kv=7.9674 Kva=10.0 %R=0.500
~ wdg=2 bus=2603489-9940850.1.4 conn=wye Kv=0.1100 Kva=10.0 %R=0.500
~ wdg=3 bus=2603489-9940850.4.2 conn=wye Kv=0.1100 Kva=10.0 %R=0.500
New Transformer.2603249 phases=1 windings=3 Xhl=1.200 Xht=1.200 Xlt=0.600
~ wdg=1 bus=25987-9940852.2 conn=wye Kv=7.9674 Kva=5.0 %R=0.500
~ wdg=2 bus=2603249-9940852v.1.4 conn=wye Kv=0.1100 Kva=5.0 %R=0.500
~ wdg=3 bus=2603249-9940852v.4.2 conn=wye Kv=0.1100 Kva=5.0 %R=0.500
New Transformer.2603618 phases=1 windings=3 Xhl=1.200 Xht=1.200 Xlt=0.600
~ wdg=1 bus=25987-9940859.2 conn=wye Kv=7.9674 Kva=15.0 %R=0.500
~ wdg=2 bus=2603618-9940859v.1.4 conn=wye Kv=0.1100 Kva=15.0 %R=0.500
~ wdg=3 bus=2603618-9940859v.4.2 conn=wye Kv=0.1100 Kva=15.0 %R=0.500
New Transformer.2603584 phases=3 windings=2 Xhl=1.200
~ wdg=1 bus=25987-9940862.1.2.3 conn=delta Kv=13.8 Kva=150.0 %R=0.500
~ wdg=2 bus=2603584-9940862v.1.2.3.4 conn=wye Kv=0.2200 Kva=150.0 %R=0.500
New Transformer.2603628 phases=1 windings=3 Xhl=1.200 Xht=1.200 Xlt=0.600
~ wdg=1 bus=25987-9940864.1 conn=wye Kv=7.9674 Kva=15.0 %R=0.500
~ wdg=2 bus=2603628-9940864v.1.4 conn=wye Kv=0.1100 Kva=15.0 %R=0.500
~ wdg=3 bus=2603628-9940864v.4.2 conn=wye Kv=0.1100 Kva=15.0 %R=0.500
New Transformer.2603054 phases=1 windings=3 Xhl=1.200 Xht=1.200 Xlt=0.600
~ wdg=1 bus=25987-9940887.3 conn=wye Kv=7.9674 Kva=10.0 %R=0.500
~ wdg=2 bus=2603054-9940887v.1.4 conn=wye Kv=0.1100 Kva=10.0 %R=0.500
~ wdg=3 bus=2603054-9940887v.4.2 conn=wye Kv=0.1100 Kva=10.0 %R=0.500
New Transformer.2599835 phases=1 windings=3 Xhl=1.200 Xht=1.200 Xlt=0.600
...